data_DEFTEQ

_audit_creation_method RASPA-1.0
_audit_creation_date 2020-12-11
_audit_author_name 'Rocio Bueno-Perez'

_cell_length_a    23.0742
_cell_length_b    23.0742
_cell_length_c    18.6187
_cell_angle_alpha 90
_cell_angle_beta  90
_cell_angle_gamma 90
_cell_volume      9912.94

_symmetry_cell_setting          triclinic
_symmetry_space_group_name_Hall 'P 1'
_symmetry_space_group_name_H-M  'P 1'
_symmetry_Int_Tables_number     1

_symmetry_equiv_pos_as_xyz 'x,y,z'

loop_
_atom_site_label
_atom_site_type_symbol
_atom_site_fract_x
_atom_site_fract_y
_atom_site_fract_z
_atom_site_charge
O1       O      0.558400000000     0.843700000000     0.072500000000     0          
O2       O      0.606800000000     0.913600000000     0.131100000000     0          
C3       C      0.698000000000     0.737800000000     0.230300000000     0          
C4       C      0.698000000000     0.795400000000     0.251200000000     0          
C5       C      0.663500000000     0.835300000000     0.215200000000     0          
H6       H      0.663500000000     0.874800000000     0.229500000000     0          
C7       C      0.629000000000     0.817400000000     0.158000000000     0          
C8       C      0.629000000000     0.759900000000     0.137100000000     0          
H9       H      0.605300000000     0.747700000000     0.098200000000     0          
C10      C      0.663700000000     0.719700000000     0.173300000000     0          
C11      C      0.595200000000     0.861600000000     0.116200000000     0          
H12      H      0.278500000000     0.192300000000     0.290300000000     0          
C13      C      0.338700000000     0.342100000000     0.147100000000     0          
H14      H      0.299300000000     0.356600000000     0.139800000000     0          
H15      H      0.360000000000     0.343700000000     0.101600000000     0          
H16      H      0.358500000000     0.366100000000     0.183000000000     0          
O17      O      0.441600000000     0.156300000000     0.072500000000     0          
O18      O      0.393200000000     0.086400000000     0.131100000000     0          
C19      C      0.302000000000     0.262200000000     0.230300000000     0          
C20      C      0.302000000000     0.204600000000     0.251200000000     0          
C21      C      0.336500000000     0.164700000000     0.215200000000     0          
H22      H      0.336500000000     0.125200000000     0.229500000000     0          
C23      C      0.371000000000     0.182600000000     0.158000000000     0          
C24      C      0.371000000000     0.240100000000     0.137100000000     0          
H25      H      0.394700000000     0.252300000000     0.098200000000     0          
C26      C      0.336300000000     0.280300000000     0.173300000000     0          
C27      C      0.404800000000     0.138400000000     0.116200000000     0          
H28      H      0.721500000000     0.807700000000     0.290300000000     0          
C29      C      0.661300000000     0.657900000000     0.147100000000     0          
H30      H      0.700700000000     0.643400000000     0.139800000000     0          
H31      H      0.640000000000     0.656300000000     0.101600000000     0          
H32      H      0.641500000000     0.633900000000     0.183000000000     0          
H33      H      0.751300000000     0.965300000000     0.491400000000     0          
N34      N      0.837900000000     0.069300000000     0.624300000000     0          
N35      N      0.838100000000     0.073300000000     0.689400000000     0          
N36      N      0.843800000000     0.094000000000     0.745200000000     0          
C37      C      0.947680000000     0.030240000000     0.579800000000     0          
C38      C      0.891400000000     0.062900000000     0.579800000000     0          
H39      H      0.904500000000     0.103500000000     0.575100000000     0          
H40      H      0.875200000000     0.052900000000     0.532100000000     0          
O41      O      0.156300000000     0.558400000000     0.572500000000     0          
O42      O      0.086400000000     0.606800000000     0.631100000000     0          
C43      C      0.262200000000     0.698000000000     0.730300000000     0          
C44      C      0.204600000000     0.698000000000     0.751200000000     0          
C45      C      0.164700000000     0.663500000000     0.715200000000     0          
H46      H      0.125200000000     0.663500000000     0.729500000000     0          
C47      C      0.182600000000     0.629000000000     0.658000000000     0          
C48      C      0.240100000000     0.629000000000     0.637100000000     0          
H49      H      0.252300000000     0.605300000000     0.598200000000     0          
C50      C      0.280300000000     0.663700000000     0.673300000000     0          
C51      C      0.138400000000     0.595200000000     0.616200000000     0          
H52      H      0.965300000000     0.248700000000     0.991400000000     0          
N53      N      0.162100000000     0.930700000000     0.624300000000     0          
N54      N      0.161900000000     0.926700000000     0.689400000000     0          
N55      N      0.156200000000     0.906000000000     0.745200000000     0          
C56      C      0.052320000000     0.969760000000     0.579800000000     0          
C57      C      0.108600000000     0.937100000000     0.579800000000     0          
H58      H      0.095500000000     0.896500000000     0.575100000000     0          
H59      H      0.124800000000     0.947100000000     0.532100000000     0          
O60      O      0.843700000000     0.441600000000     0.572500000000     0          
O61      O      0.913600000000     0.393200000000     0.631100000000     0          
C62      C      0.737800000000     0.302000000000     0.730300000000     0          
C63      C      0.795400000000     0.302000000000     0.751200000000     0          
C64      C      0.835300000000     0.336500000000     0.715200000000     0          
H65      H      0.874800000000     0.336500000000     0.729500000000     0          
C66      C      0.817400000000     0.371000000000     0.658000000000     0          
C67      C      0.759900000000     0.371000000000     0.637100000000     0          
H68      H      0.747700000000     0.394700000000     0.598200000000     0          
C69      C      0.719700000000     0.336300000000     0.673300000000     0          
H70      H      0.680200000000     0.336200000000     0.658900000000     0          
C71      C      0.861600000000     0.404800000000     0.616200000000     0          
C72      C      0.818400000000     0.266100000000     0.812400000000     0          
H73      H      0.787700000000     0.240400000000     0.830200000000     0          
H74      H      0.831300000000     0.291700000000     0.851300000000     0          
H75      H      0.851200000000     0.242700000000     0.795600000000     0          
H76      H      0.192300000000     0.721500000000     0.790300000000     0          
C77      C      0.342100000000     0.661300000000     0.647100000000     0          
H78      H      0.356600000000     0.700700000000     0.639800000000     0          
H79      H      0.343700000000     0.640000000000     0.601600000000     0          
H80      H      0.366100000000     0.641500000000     0.683000000000     0          
N81      N      0.930700000000     0.162100000000     0.875700000000     0          
N82      N      0.926700000000     0.161900000000     0.810600000000     0          
N83      N      0.906000000000     0.156200000000     0.754800000000     0          
C84      C      0.969760000000     0.052320000000     0.920200000000     0          
C85      C      0.937100000000     0.108600000000     0.920200000000     0          
H86      H      0.896500000000     0.095500000000     0.924900000000     0          
H87      H      0.947100000000     0.124800000000     0.967900000000     0          
O88      O      0.441600000000     0.843700000000     0.927500000000     0          
O89      O      0.393200000000     0.913600000000     0.868900000000     0          
C90      C      0.302000000000     0.737800000000     0.769700000000     0          
C91      C      0.302000000000     0.795400000000     0.748800000000     0          
C92      C      0.336500000000     0.835300000000     0.784800000000     0          
H93      H      0.336500000000     0.874800000000     0.770500000000     0          
C94      C      0.371000000000     0.817400000000     0.842000000000     0          
C95      C      0.371000000000     0.759900000000     0.862900000000     0          
H96      H      0.394700000000     0.747700000000     0.901800000000     0          
C97      C      0.336300000000     0.719700000000     0.826700000000     0          
H98      H      0.336200000000     0.680200000000     0.841100000000     0          
C99      C      0.404800000000     0.861600000000     0.883800000000     0          
C100     C      0.266100000000     0.818400000000     0.687600000000     0          
H101     H      0.240400000000     0.787700000000     0.669800000000     0          
H102     H      0.291700000000     0.831300000000     0.648700000000     0          
H103     H      0.242700000000     0.851200000000     0.704400000000     0          
H104     H      0.721500000000     0.192300000000     0.709700000000     0          
C105     C      0.661300000000     0.342100000000     0.852900000000     0          
H106     H      0.700700000000     0.356600000000     0.860200000000     0          
H107     H      0.640000000000     0.343700000000     0.898400000000     0          
H108     H      0.641500000000     0.366100000000     0.817000000000     0          
H109     H      0.509100000000     0.965400000000     0.551900000000     0          
N110     N      0.069300000000     0.837900000000     0.875700000000     0          
N111     N      0.073300000000     0.838100000000     0.810600000000     0          
N112     N      0.094000000000     0.843800000000     0.754800000000     0          
C113     C      0.030240000000     0.947680000000     0.920200000000     0          
C114     C      0.062900000000     0.891400000000     0.920200000000     0          
H115     H      0.103500000000     0.904500000000     0.924900000000     0          
H116     H      0.052900000000     0.875200000000     0.967900000000     0          
O117     O      0.558400000000     0.156300000000     0.927500000000     0          
O118     O      0.606800000000     0.086400000000     0.868900000000     0          
C119     C      0.698000000000     0.262200000000     0.769700000000     0          
C120     C      0.698000000000     0.204600000000     0.748800000000     0          
C121     C      0.663500000000     0.164700000000     0.784800000000     0          
H122     H      0.663500000000     0.125200000000     0.770500000000     0          
C123     C      0.629000000000     0.182600000000     0.842000000000     0          
C124     C      0.629000000000     0.240100000000     0.862900000000     0          
H125     H      0.605300000000     0.252300000000     0.901800000000     0          
C126     C      0.663700000000     0.280300000000     0.826700000000     0          
C127     C      0.595200000000     0.138400000000     0.883800000000     0          
O128     O      0.843700000000     0.558400000000     0.427500000000     0          
O129     O      0.913600000000     0.606800000000     0.368900000000     0          
C130     C      0.737800000000     0.698000000000     0.269700000000     0          
C131     C      0.795400000000     0.698000000000     0.248800000000     0          
C132     C      0.835300000000     0.663500000000     0.284800000000     0          
H133     H      0.874800000000     0.663500000000     0.270500000000     0          
C134     C      0.817400000000     0.629000000000     0.342000000000     0          
C135     C      0.759900000000     0.629000000000     0.362900000000     0          
H136     H      0.747700000000     0.605300000000     0.401800000000     0          
C137     C      0.719700000000     0.663700000000     0.326700000000     0          
H138     H      0.680200000000     0.663800000000     0.341100000000     0          
C139     C      0.861600000000     0.595200000000     0.383800000000     0          
C140     C      0.818400000000     0.733900000000     0.187600000000     0          
H141     H      0.787700000000     0.759600000000     0.169800000000     0          
H142     H      0.831300000000     0.708300000000     0.148700000000     0          
H143     H      0.851200000000     0.757300000000     0.204400000000     0          
O144     O      0.156300000000     0.441600000000     0.427500000000     0          
O145     O      0.086400000000     0.393200000000     0.368900000000     0          
C146     C      0.262200000000     0.302000000000     0.269700000000     0          
C147     C      0.204600000000     0.302000000000     0.248800000000     0          
C148     C      0.164700000000     0.336500000000     0.284800000000     0          
H149     H      0.125200000000     0.336500000000     0.270500000000     0          
C150     C      0.182600000000     0.371000000000     0.342000000000     0          
C151     C      0.240100000000     0.371000000000     0.362900000000     0          
H152     H      0.252300000000     0.394700000000     0.401800000000     0          
C153     C      0.280300000000     0.336300000000     0.326700000000     0          
H154     H      0.319800000000     0.336200000000     0.341100000000     0          
C155     C      0.138400000000     0.404800000000     0.383800000000     0          
C156     C      0.181600000000     0.266100000000     0.187600000000     0          
H157     H      0.212300000000     0.240400000000     0.169800000000     0          
H158     H      0.168700000000     0.291700000000     0.148700000000     0          
H159     H      0.148800000000     0.242700000000     0.204400000000     0          
N160     N      0.930700000000     0.837900000000     0.875700000000     0          
N161     N      0.926700000000     0.838100000000     0.810600000000     0          
N162     N      0.906000000000     0.843800000000     0.754800000000     0          
C163     C      0.969760000000     0.947680000000     0.920200000000     0          
C164     C      0.937100000000     0.891400000000     0.920200000000     0          
H165     H      0.896500000000     0.904500000000     0.924900000000     0          
H166     H      0.947100000000     0.875200000000     0.967900000000     0          
O167     O      0.441600000000     0.156300000000     0.927500000000     0          
O168     O      0.393200000000     0.086400000000     0.868900000000     0          
C169     C      0.302000000000     0.262200000000     0.769700000000     0          
C170     C      0.302000000000     0.204600000000     0.748800000000     0          
C171     C      0.336500000000     0.164700000000     0.784800000000     0          
H172     H      0.336500000000     0.125200000000     0.770500000000     0          
C173     C      0.371000000000     0.182600000000     0.842000000000     0          
C174     C      0.371000000000     0.240100000000     0.862900000000     0          
H175     H      0.394700000000     0.252300000000     0.901800000000     0          
C176     C      0.336300000000     0.280300000000     0.826700000000     0          
H177     H      0.336200000000     0.319800000000     0.841100000000     0          
C178     C      0.404800000000     0.138400000000     0.883800000000     0          
C179     C      0.266100000000     0.181600000000     0.687600000000     0          
H180     H      0.240400000000     0.212300000000     0.669800000000     0          
H181     H      0.291700000000     0.168700000000     0.648700000000     0          
H182     H      0.242700000000     0.148800000000     0.704400000000     0          
H183     H      0.509100000000     0.034600000000     0.551900000000     0          
N184     N      0.069300000000     0.162100000000     0.875700000000     0          
N185     N      0.073300000000     0.161900000000     0.810600000000     0          
N186     N      0.094000000000     0.156200000000     0.754800000000     0          
C187     C      0.030240000000     0.052320000000     0.920200000000     0          
C188     C      0.062900000000     0.108600000000     0.920200000000     0          
H189     H      0.103500000000     0.095500000000     0.924900000000     0          
H190     H      0.052900000000     0.124800000000     0.967900000000     0          
O191     O      0.558400000000     0.843700000000     0.927500000000     0          
O192     O      0.606800000000     0.913600000000     0.868900000000     0          
C193     C      0.698000000000     0.737800000000     0.769700000000     0          
C194     C      0.698000000000     0.795400000000     0.748800000000     0          
C195     C      0.663500000000     0.835300000000     0.784800000000     0          
H196     H      0.663500000000     0.874800000000     0.770500000000     0          
C197     C      0.629000000000     0.817400000000     0.842000000000     0          
C198     C      0.629000000000     0.759900000000     0.862900000000     0          
H199     H      0.605300000000     0.747700000000     0.901800000000     0          
C200     C      0.663700000000     0.719700000000     0.826700000000     0          
H201     H      0.663800000000     0.680200000000     0.841100000000     0          
C202     C      0.595200000000     0.861600000000     0.883800000000     0          
C203     C      0.733900000000     0.818400000000     0.687600000000     0          
H204     H      0.759600000000     0.787700000000     0.669800000000     0          
H205     H      0.708300000000     0.831300000000     0.648700000000     0          
H206     H      0.757300000000     0.851200000000     0.704400000000     0          
O207     O      0.843700000000     0.441600000000     0.427500000000     0          
O208     O      0.913600000000     0.393200000000     0.368900000000     0          
C209     C      0.737800000000     0.302000000000     0.269700000000     0          
C210     C      0.795400000000     0.302000000000     0.248800000000     0          
C211     C      0.835300000000     0.336500000000     0.284800000000     0          
H212     H      0.874800000000     0.336500000000     0.270500000000     0          
C213     C      0.817400000000     0.371000000000     0.342000000000     0          
C214     C      0.759900000000     0.371000000000     0.362900000000     0          
H215     H      0.747700000000     0.394700000000     0.401800000000     0          
C216     C      0.719700000000     0.336300000000     0.326700000000     0          
H217     H      0.680200000000     0.336200000000     0.341100000000     0          
C218     C      0.861600000000     0.404800000000     0.383800000000     0          
C219     C      0.818400000000     0.266100000000     0.187600000000     0          
H220     H      0.787700000000     0.240400000000     0.169800000000     0          
H221     H      0.831300000000     0.291700000000     0.148700000000     0          
H222     H      0.851200000000     0.242700000000     0.204400000000     0          
O223     O      0.156300000000     0.558400000000     0.427500000000     0          
O224     O      0.086400000000     0.606800000000     0.368900000000     0          
C225     C      0.262200000000     0.698000000000     0.269700000000     0          
C226     C      0.204600000000     0.698000000000     0.248800000000     0          
C227     C      0.164700000000     0.663500000000     0.284800000000     0          
H228     H      0.125200000000     0.663500000000     0.270500000000     0          
C229     C      0.182600000000     0.629000000000     0.342000000000     0          
C230     C      0.240100000000     0.629000000000     0.362900000000     0          
H231     H      0.252300000000     0.605300000000     0.401800000000     0          
C232     C      0.280300000000     0.663700000000     0.326700000000     0          
H233     H      0.319800000000     0.663800000000     0.341100000000     0          
C234     C      0.138400000000     0.595200000000     0.383800000000     0          
C235     C      0.181600000000     0.733900000000     0.187600000000     0          
H236     H      0.212300000000     0.759600000000     0.169800000000     0          
H237     H      0.168700000000     0.708300000000     0.148700000000     0          
H238     H      0.148800000000     0.757300000000     0.204400000000     0          
O239     O      0.558400000000     0.156300000000     0.072500000000     0          
O240     O      0.606800000000     0.086400000000     0.131100000000     0          
C241     C      0.698000000000     0.262200000000     0.230300000000     0          
C242     C      0.698000000000     0.204600000000     0.251200000000     0          
C243     C      0.663500000000     0.164700000000     0.215200000000     0          
H244     H      0.663500000000     0.125200000000     0.229500000000     0          
C245     C      0.629000000000     0.182600000000     0.158000000000     0          
C246     C      0.629000000000     0.240100000000     0.137100000000     0          
H247     H      0.605300000000     0.252300000000     0.098200000000     0          
C248     C      0.663700000000     0.280300000000     0.173300000000     0          
C249     C      0.595200000000     0.138400000000     0.116200000000     0          
H250     H      0.278500000000     0.807700000000     0.290300000000     0          
C251     C      0.338700000000     0.657900000000     0.147100000000     0          
H252     H      0.299300000000     0.643400000000     0.139800000000     0          
H253     H      0.360000000000     0.656300000000     0.101600000000     0          
H254     H      0.358500000000     0.633900000000     0.183000000000     0          
O255     O      0.441600000000     0.843700000000     0.072500000000     0          
O256     O      0.393200000000     0.913600000000     0.131100000000     0          
C257     C      0.302000000000     0.737800000000     0.230300000000     0          
C258     C      0.302000000000     0.795400000000     0.251200000000     0          
C259     C      0.336500000000     0.835300000000     0.215200000000     0          
H260     H      0.336500000000     0.874800000000     0.229500000000     0          
C261     C      0.371000000000     0.817400000000     0.158000000000     0          
C262     C      0.371000000000     0.759900000000     0.137100000000     0          
H263     H      0.394700000000     0.747700000000     0.098200000000     0          
C264     C      0.336300000000     0.719700000000     0.173300000000     0          
C265     C      0.404800000000     0.861600000000     0.116200000000     0          
H266     H      0.721500000000     0.192300000000     0.290300000000     0          
C267     C      0.661300000000     0.342100000000     0.147100000000     0          
H268     H      0.700700000000     0.356600000000     0.139800000000     0          
H269     H      0.640000000000     0.343700000000     0.101600000000     0          
H270     H      0.641500000000     0.366100000000     0.183000000000     0          
H271     H      0.751300000000     0.034700000000     0.491400000000     0          
N272     N      0.837900000000     0.930700000000     0.624300000000     0          
N273     N      0.838100000000     0.926700000000     0.689400000000     0          
N274     N      0.843800000000     0.906000000000     0.745200000000     0          
C275     C      0.947680000000     0.969760000000     0.579800000000     0          
C276     C      0.891400000000     0.937100000000     0.579800000000     0          
H277     H      0.904500000000     0.896500000000     0.575100000000     0          
H278     H      0.875200000000     0.947100000000     0.532100000000     0          
O279     O      0.156300000000     0.441600000000     0.572500000000     0          
O280     O      0.086400000000     0.393200000000     0.631100000000     0          
C281     C      0.262200000000     0.302000000000     0.730300000000     0          
C282     C      0.204600000000     0.302000000000     0.751200000000     0          
C283     C      0.164700000000     0.336500000000     0.715200000000     0          
H284     H      0.125200000000     0.336500000000     0.729500000000     0          
C285     C      0.182600000000     0.371000000000     0.658000000000     0          
C286     C      0.240100000000     0.371000000000     0.637100000000     0          
H287     H      0.252300000000     0.394700000000     0.598200000000     0          
C288     C      0.280300000000     0.336300000000     0.673300000000     0          
C289     C      0.138400000000     0.404800000000     0.616200000000     0          
H290     H      0.807700000000     0.721500000000     0.790300000000     0          
C291     C      0.657900000000     0.661300000000     0.647100000000     0          
H292     H      0.643400000000     0.700700000000     0.639800000000     0          
H293     H      0.656300000000     0.640000000000     0.601600000000     0          
H294     H      0.633900000000     0.641500000000     0.683000000000     0          
N295     N      0.162100000000     0.069300000000     0.624300000000     0          
N296     N      0.161900000000     0.073300000000     0.689400000000     0          
N297     N      0.156200000000     0.094000000000     0.745200000000     0          
C298     C      0.052320000000     0.030240000000     0.579800000000     0          
C299     C      0.108600000000     0.062900000000     0.579800000000     0          
H300     H      0.095500000000     0.103500000000     0.575100000000     0          
H301     H      0.124800000000     0.052900000000     0.532100000000     0          
O302     O      0.843700000000     0.558400000000     0.572500000000     0          
O303     O      0.913600000000     0.606800000000     0.631100000000     0          
C304     C      0.737800000000     0.698000000000     0.730300000000     0          
C305     C      0.795400000000     0.698000000000     0.751200000000     0          
C306     C      0.835300000000     0.663500000000     0.715200000000     0          
H307     H      0.874800000000     0.663500000000     0.729500000000     0          
C308     C      0.817400000000     0.629000000000     0.658000000000     0          
C309     C      0.759900000000     0.629000000000     0.637100000000     0          
H310     H      0.747700000000     0.605300000000     0.598200000000     0          
C311     C      0.719700000000     0.663700000000     0.673300000000     0          
C312     C      0.861600000000     0.595200000000     0.616200000000     0          
H313     H      0.192300000000     0.278500000000     0.790300000000     0          
C314     C      0.342100000000     0.338700000000     0.647100000000     0          
H315     H      0.356600000000     0.299300000000     0.639800000000     0          
H316     H      0.343700000000     0.360000000000     0.601600000000     0          
H317     H      0.366100000000     0.358500000000     0.683000000000     0          
H318     H      0.034700000000     0.248700000000     0.991400000000     0          
Zr319    Zr     0.500000000000     0.892740000000     0.000000000000     0          
Zr320    Zr     0.500000000000     0.107260000000     0.000000000000     0          
Zr321    Zr     0.107260000000     0.500000000000     0.500000000000     0          
Zr322    Zr     0.892740000000     0.500000000000     0.500000000000     0          
Zr323    Zr     0.424130000000     0.000000000000     0.906640000000     0          
O324     O      0.410600000000     0.000000000000     0.801000000000     0          
Zr325    Zr     0.575870000000     0.000000000000     0.906640000000     0          
O326     O      0.589400000000     0.000000000000     0.801000000000     0          
O327     O      0.694400000000     0.000000000000     0.793200000000     0          
C328     C      0.640800000000     0.000000000000     0.770600000000     0          
C329     C      0.640300000000     0.000000000000     0.690100000000     0          
C330     C      0.588000000000     0.000000000000     0.653100000000     0          
H331     H      0.552400000000     0.000000000000     0.678700000000     0          
C332     C      0.587900000000     0.000000000000     0.578200000000     0          
C333     C      0.640000000000     0.000000000000     0.540500000000     0          
C334     C      0.692200000000     0.000000000000     0.578100000000     0          
C335     C      0.692400000000     0.000000000000     0.652700000000     0          
H336     H      0.728100000000     0.000000000000     0.678200000000     0          
H337     H      0.552200000000     0.000000000000     0.447100000000     0          
H338     H      0.780700000000     0.000000000000     0.426500000000     0          
C339     C      0.748800000000     0.000000000000     0.461200000000     0          
O340     O      0.552200000000     0.000000000000     0.779500000000     0          
Zr341    Zr     0.000000000000     0.424130000000     0.406640000000     0          
O342     O      0.000000000000     0.333800000000     0.589200000000     0          
O343     O      0.000000000000     0.323800000000     0.457000000000     0          
C344     C      0.000000000000     0.309100000000     0.525700000000     0          
C345     C      0.000000000000     0.244600000000     0.541000000000     0          
C346     C      0.000000000000     0.225000000000     0.612000000000     0          
H347     H      0.000000000000     0.252100000000     0.650400000000     0          
C348     C      0.000000000000     0.165800000000     0.626700000000     0          
H349     H      0.000000000000     0.152700000000     0.675000000000     0          
C350     C      0.000000000000     0.126000000000     0.570600000000     0          
C351     C      0.000000000000     0.060600000000     0.579800000000     0          
O352     O      0.000000000000     0.410600000000     0.301000000000     0          
O353     O      0.000000000000     0.305600000000     0.293200000000     0          
C354     C      0.000000000000     0.359200000000     0.270600000000     0          
C355     C      0.000000000000     0.359700000000     0.190100000000     0          
C356     C      0.000000000000     0.412000000000     0.153100000000     0          
H357     H      0.000000000000     0.447600000000     0.178700000000     0          
C358     C      0.000000000000     0.412100000000     0.078200000000     0          
C359     C      0.000000000000     0.360000000000     0.040500000000     0          
C360     C      0.000000000000     0.307800000000     0.078100000000     0          
C361     C      0.000000000000     0.307600000000     0.152700000000     0          
H362     H      0.000000000000     0.271900000000     0.178200000000     0          
H363     H      0.000000000000     0.447800000000     0.947100000000     0          
H364     H      0.000000000000     0.118200000000     0.461700000000     0          
C365     C      0.000000000000     0.204600000000     0.485100000000     0          
H366     H      0.000000000000     0.217800000000     0.436800000000     0          
H367     H      0.000000000000     0.219300000000     0.926500000000     0          
C368     C      0.000000000000     0.251200000000     0.961200000000     0          
Zr369    Zr     0.000000000000     0.575870000000     0.406640000000     0          
O370     O      0.000000000000     0.666200000000     0.589200000000     0          
O371     O      0.000000000000     0.676200000000     0.457000000000     0          
C372     C      0.000000000000     0.690900000000     0.525700000000     0          
C373     C      0.000000000000     0.755400000000     0.541000000000     0          
C374     C      0.000000000000     0.775000000000     0.612000000000     0          
H375     H      0.000000000000     0.747900000000     0.650400000000     0          
C376     C      0.000000000000     0.834200000000     0.626700000000     0          
H377     H      0.000000000000     0.847300000000     0.675000000000     0          
C378     C      0.000000000000     0.874000000000     0.570600000000     0          
C379     C      0.000000000000     0.939400000000     0.579800000000     0          
O380     O      0.000000000000     0.589400000000     0.301000000000     0          
H381     H      0.000000000000     0.881800000000     0.461700000000     0          
C382     C      0.000000000000     0.795400000000     0.485100000000     0          
H383     H      0.000000000000     0.782200000000     0.436800000000     0          
Zr384    Zr     0.575870000000     0.000000000000     0.093360000000     0          
O385     O      0.666200000000     0.000000000000     0.910800000000     0          
O386     O      0.676200000000     0.000000000000     0.043000000000     0          
C387     C      0.690900000000     0.000000000000     0.974300000000     0          
C388     C      0.755400000000     0.000000000000     0.959000000000     0          
C389     C      0.775000000000     0.000000000000     0.888000000000     0          
H390     H      0.747900000000     0.000000000000     0.849600000000     0          
C391     C      0.834200000000     0.000000000000     0.873300000000     0          
H392     H      0.847300000000     0.000000000000     0.825000000000     0          
C393     C      0.874000000000     0.000000000000     0.929400000000     0          
C394     C      0.939400000000     0.000000000000     0.920200000000     0          
O395     O      0.589400000000     0.000000000000     0.199000000000     0          
O396     O      0.694400000000     0.000000000000     0.206800000000     0          
C397     C      0.640800000000     0.000000000000     0.229400000000     0          
C398     C      0.640300000000     0.000000000000     0.309900000000     0          
C399     C      0.588000000000     0.000000000000     0.346900000000     0          
H400     H      0.552400000000     0.000000000000     0.321300000000     0          
C401     C      0.587900000000     0.000000000000     0.421800000000     0          
C402     C      0.640000000000     0.000000000000     0.459500000000     0          
C403     C      0.692200000000     0.000000000000     0.421900000000     0          
C404     C      0.692400000000     0.000000000000     0.347300000000     0          
H405     H      0.728100000000     0.000000000000     0.321800000000     0          
H406     H      0.881800000000     0.000000000000     0.038300000000     0          
C407     C      0.795400000000     0.000000000000     0.014900000000     0          
H408     H      0.782200000000     0.000000000000     0.063200000000     0          
C409     C      0.531400000000     0.000000000000     0.539000000000     0          
H410     H      0.727900000000     0.000000000000     0.552500000000     0          
O411     O      0.552200000000     0.000000000000     0.220500000000     0          
Zr412    Zr     0.424130000000     0.000000000000     0.093360000000     0          
O413     O      0.333800000000     0.000000000000     0.910800000000     0          
O414     O      0.323800000000     0.000000000000     0.043000000000     0          
C415     C      0.309100000000     0.000000000000     0.974300000000     0          
C416     C      0.244600000000     0.000000000000     0.959000000000     0          
C417     C      0.225000000000     0.000000000000     0.888000000000     0          
H418     H      0.252100000000     0.000000000000     0.849600000000     0          
C419     C      0.165800000000     0.000000000000     0.873300000000     0          
H420     H      0.152700000000     0.000000000000     0.825000000000     0          
C421     C      0.126000000000     0.000000000000     0.929400000000     0          
C422     C      0.060600000000     0.000000000000     0.920200000000     0          
O423     O      0.410600000000     0.000000000000     0.199000000000     0          
H424     H      0.118200000000     0.000000000000     0.038300000000     0          
C425     C      0.204600000000     0.000000000000     0.014900000000     0          
H426     H      0.217800000000     0.000000000000     0.063200000000     0          
Zr427    Zr     0.000000000000     0.424130000000     0.593360000000     0          
O428     O      0.000000000000     0.410600000000     0.699000000000     0          
O429     O      0.000000000000     0.305600000000     0.706800000000     0          
C430     C      0.000000000000     0.359200000000     0.729400000000     0          
C431     C      0.000000000000     0.359700000000     0.809900000000     0          
C432     C      0.000000000000     0.412000000000     0.846900000000     0          
H433     H      0.000000000000     0.447600000000     0.821300000000     0          
C434     C      0.000000000000     0.412100000000     0.921800000000     0          
C435     C      0.000000000000     0.360000000000     0.959500000000     0          
C436     C      0.000000000000     0.307800000000     0.921900000000     0          
C437     C      0.000000000000     0.307600000000     0.847300000000     0          
H438     H      0.000000000000     0.271900000000     0.821800000000     0          
C439     C      0.000000000000     0.468600000000     0.039000000000     0          
H440     H      0.000000000000     0.272100000000     0.052500000000     0          
Zr441    Zr     0.000000000000     0.575870000000     0.593360000000     0          
O442     O      0.000000000000     0.589400000000     0.699000000000     0          
O443     O      0.424200000000     0.947100000000     0.000000000000     0          
O444     O      0.575800000000     0.052900000000     0.000000000000     0          
O445     O      0.052900000000     0.424200000000     0.500000000000     0          
O446     O      0.947100000000     0.575800000000     0.500000000000     0          
O447     O      0.575800000000     0.947100000000     0.000000000000     0          
O448     O      0.424200000000     0.052900000000     0.000000000000     0          
O449     O      0.947100000000     0.424200000000     0.500000000000     0          
O450     O      0.052900000000     0.575800000000     0.500000000000     0          
O451     O      0.500000000000     0.948200000000     0.905200000000     0          
O452     O      0.500000000000     0.051800000000     0.905200000000     0          
O453     O      0.051800000000     0.500000000000     0.405200000000     0          
O454     O      0.948200000000     0.500000000000     0.405200000000     0          
O455     O      0.500000000000     0.948200000000     0.094800000000     0          
O456     O      0.500000000000     0.051800000000     0.094800000000     0          
O457     O      0.948200000000     0.500000000000     0.594800000000     0          
O458     O      0.051800000000     0.500000000000     0.594800000000     0          
C459     C      0.145400000000     0.000000000000     0.000000000000     0          
C460     C      0.854600000000     0.000000000000     0.000000000000     0          
C461     C      0.000000000000     0.145400000000     0.500000000000     0          
C462     C      0.000000000000     0.854600000000     0.500000000000     0          
H463     H      0.955070000000     0.483130000000     0.022710000000     0          
H464     H      0.044930000000     0.483130000000     0.022690000000     0          
H465     H      0.000000000000     0.502510000000     0.081340000000     0          


