data_EWILIH

_audit_creation_method RASPA-1.0
_audit_creation_date 2020-11-2
_audit_author_name 'Rocio Bueno-Perez'

_cell_length_a    20.7697
_cell_length_b    20.7697
_cell_length_c    20.7697
_cell_angle_alpha 90
_cell_angle_beta  90
_cell_angle_gamma 90
_cell_volume      8959.64

_symmetry_cell_setting          triclinic
_symmetry_space_group_name_Hall 'P 1'
_symmetry_space_group_name_H-M  'P 1'
_symmetry_Int_Tables_number     1

_symmetry_equiv_pos_as_xyz 'x,y,z'

loop_
_atom_site_label
_atom_site_type_symbol
_atom_site_fract_x
_atom_site_fract_y
_atom_site_fract_z
_atom_site_charge
Zr1      Zr     0.119850000000     0.000000000000     0.000000000000     0          
Zr2      Zr     0.119850000000     0.500000000000     0.500000000000     0          
Zr3      Zr     0.619850000000     0.000000000000     0.500000000000     0          
Zr4      Zr     0.619850000000     0.500000000000     0.000000000000     0          
Zr5      Zr     0.880150000000     0.000000000000     0.000000000000     0          
Zr6      Zr     0.880150000000     0.500000000000     0.500000000000     0          
Zr7      Zr     0.380150000000     0.000000000000     0.500000000000     0          
Zr8      Zr     0.380150000000     0.500000000000     0.000000000000     0          
Zr9      Zr     0.000000000000     0.119850000000     0.000000000000     0          
Zr10     Zr     0.000000000000     0.619850000000     0.500000000000     0          
Zr11     Zr     0.500000000000     0.119850000000     0.500000000000     0          
Zr12     Zr     0.500000000000     0.619850000000     0.000000000000     0          
Zr13     Zr     0.000000000000     0.880150000000     0.000000000000     0          
Zr14     Zr     0.000000000000     0.380150000000     0.500000000000     0          
Zr15     Zr     0.500000000000     0.880150000000     0.500000000000     0          
Zr16     Zr     0.500000000000     0.380150000000     0.000000000000     0          
Zr17     Zr     0.000000000000     0.000000000000     0.119850000000     0          
Zr18     Zr     0.000000000000     0.500000000000     0.619850000000     0          
Zr19     Zr     0.500000000000     0.000000000000     0.619850000000     0          
Zr20     Zr     0.500000000000     0.500000000000     0.119850000000     0          
Zr21     Zr     0.000000000000     0.000000000000     0.880150000000     0          
Zr22     Zr     0.000000000000     0.500000000000     0.380150000000     0          
Zr23     Zr     0.500000000000     0.000000000000     0.380150000000     0          
Zr24     Zr     0.500000000000     0.500000000000     0.880150000000     0          
O25      O      0.173320000000     0.000000000000     0.095110000000     0          
C26      C      0.267500000000     0.000000000000     0.184400000000     0          
N27      N      0.284300000000     0.000000000000     0.121700000000     0          
O28      O      0.173320000000     0.500000000000     0.595110000000     0          
C29      C      0.267500000000     0.500000000000     0.684400000000     0          
N30      N      0.284300000000     0.500000000000     0.621700000000     0          
O31      O      0.673320000000     0.000000000000     0.595110000000     0          
C32      C      0.767500000000     0.000000000000     0.684400000000     0          
O33      O      0.673320000000     0.500000000000     0.095110000000     0          
C34      C      0.767500000000     0.500000000000     0.184400000000     0          
O35      O      0.826680000000     0.000000000000     0.095110000000     0          
C36      C      0.732500000000     0.000000000000     0.184400000000     0          
N37      N      0.715700000000     0.000000000000     0.121700000000     0          
O38      O      0.826680000000     0.500000000000     0.595110000000     0          
C39      C      0.732500000000     0.500000000000     0.684400000000     0          
O40      O      0.326680000000     0.000000000000     0.595110000000     0          
C41      C      0.232500000000     0.000000000000     0.684400000000     0          
O42      O      0.326680000000     0.500000000000     0.095110000000     0          
C43      C      0.232500000000     0.500000000000     0.184400000000     0          
O44      O      0.826680000000     0.000000000000     0.904890000000     0          
C45      C      0.732500000000     0.000000000000     0.815600000000     0          
O46      O      0.826680000000     0.500000000000     0.404890000000     0          
C47      C      0.732500000000     0.500000000000     0.315600000000     0          
O48      O      0.326680000000     0.000000000000     0.404890000000     0          
C49      C      0.232500000000     0.000000000000     0.315600000000     0          
O50      O      0.326680000000     0.500000000000     0.904890000000     0          
C51      C      0.232500000000     0.500000000000     0.815600000000     0          
O52      O      0.173320000000     0.000000000000     0.904890000000     0          
C53      C      0.267500000000     0.000000000000     0.815600000000     0          
O54      O      0.173320000000     0.500000000000     0.404890000000     0          
C55      C      0.267500000000     0.500000000000     0.315600000000     0          
N56      N      0.284300000000     0.500000000000     0.378300000000     0          
O57      O      0.673320000000     0.000000000000     0.404890000000     0          
C58      C      0.767500000000     0.000000000000     0.315600000000     0          
O59      O      0.673320000000     0.500000000000     0.904890000000     0          
C60      C      0.767500000000     0.500000000000     0.815600000000     0          
O61      O      0.095110000000     0.173320000000     0.000000000000     0          
C62      C      0.184400000000     0.267500000000     0.000000000000     0          
O63      O      0.095110000000     0.673320000000     0.500000000000     0          
C64      C      0.184400000000     0.767500000000     0.500000000000     0          
O65      O      0.595110000000     0.173320000000     0.500000000000     0          
C66      C      0.684400000000     0.267500000000     0.500000000000     0          
O67      O      0.595110000000     0.673320000000     0.000000000000     0          
C68      C      0.684400000000     0.767500000000     0.000000000000     0          
N69      N      0.621700000000     0.784300000000     0.000000000000     0          
O70      O      0.095110000000     0.826680000000     0.000000000000     0          
C71      C      0.184400000000     0.732500000000     0.000000000000     0          
N72      N      0.121700000000     0.715700000000     0.000000000000     0          
O73      O      0.095110000000     0.326680000000     0.500000000000     0          
C74      C      0.184400000000     0.232500000000     0.500000000000     0          
O75      O      0.595110000000     0.826680000000     0.500000000000     0          
C76      C      0.684400000000     0.732500000000     0.500000000000     0          
N77      N      0.621700000000     0.715700000000     0.500000000000     0          
O78      O      0.595110000000     0.326680000000     0.000000000000     0          
C79      C      0.684400000000     0.232500000000     0.000000000000     0          
O80      O      0.904890000000     0.826680000000     0.000000000000     0          
C81      C      0.815600000000     0.732500000000     0.000000000000     0          
O82      O      0.904890000000     0.326680000000     0.500000000000     0          
C83      C      0.815600000000     0.232500000000     0.500000000000     0          
O84      O      0.404890000000     0.826680000000     0.500000000000     0          
C85      C      0.315600000000     0.732500000000     0.500000000000     0          
O86      O      0.404890000000     0.326680000000     0.000000000000     0          
C87      C      0.315600000000     0.232500000000     0.000000000000     0          
O88      O      0.904890000000     0.173320000000     0.000000000000     0          
C89      C      0.815600000000     0.267500000000     0.000000000000     0          
O90      O      0.904890000000     0.673320000000     0.500000000000     0          
C91      C      0.815600000000     0.767500000000     0.500000000000     0          
O92      O      0.404890000000     0.173320000000     0.500000000000     0          
C93      C      0.315600000000     0.267500000000     0.500000000000     0          
O94      O      0.404890000000     0.673320000000     0.000000000000     0          
C95      C      0.315600000000     0.767500000000     0.000000000000     0          
O96      O      0.000000000000     0.095110000000     0.173320000000     0          
C97      C      0.000000000000     0.184400000000     0.267500000000     0          
O98      O      0.000000000000     0.595110000000     0.673320000000     0          
C99      C      0.000000000000     0.684400000000     0.767500000000     0          
O100     O      0.500000000000     0.095110000000     0.673320000000     0          
C101     C      0.500000000000     0.184400000000     0.767500000000     0          
O102     O      0.500000000000     0.595110000000     0.173320000000     0          
C103     C      0.500000000000     0.684400000000     0.267500000000     0          
N104     N      0.500000000000     0.621700000000     0.284300000000     0          
O105     O      0.000000000000     0.095110000000     0.826680000000     0          
C106     C      0.000000000000     0.184400000000     0.732500000000     0          
O107     O      0.000000000000     0.595110000000     0.326680000000     0          
C108     C      0.000000000000     0.684400000000     0.232500000000     0          
O109     O      0.500000000000     0.095110000000     0.326680000000     0          
C110     C      0.500000000000     0.184400000000     0.232500000000     0          
O111     O      0.500000000000     0.595110000000     0.826680000000     0          
C112     C      0.500000000000     0.684400000000     0.732500000000     0          
O113     O      0.000000000000     0.904890000000     0.826680000000     0          
C114     C      0.000000000000     0.815600000000     0.732500000000     0          
O115     O      0.000000000000     0.404890000000     0.326680000000     0          
C116     C      0.000000000000     0.315600000000     0.232500000000     0          
N117     N      0.000000000000     0.378300000000     0.215700000000     0          
O118     O      0.500000000000     0.904890000000     0.326680000000     0          
C119     C      0.500000000000     0.815600000000     0.232500000000     0          
O120     O      0.500000000000     0.404890000000     0.826680000000     0          
C121     C      0.500000000000     0.315600000000     0.732500000000     0          
N122     N      0.500000000000     0.378300000000     0.715700000000     0          
O123     O      0.000000000000     0.904890000000     0.173320000000     0          
C124     C      0.000000000000     0.815600000000     0.267500000000     0          
O125     O      0.000000000000     0.404890000000     0.673320000000     0          
C126     C      0.000000000000     0.315600000000     0.767500000000     0          
N127     N      0.000000000000     0.378300000000     0.784300000000     0          
O128     O      0.500000000000     0.904890000000     0.673320000000     0          
C129     C      0.500000000000     0.815600000000     0.767500000000     0          
O130     O      0.500000000000     0.404890000000     0.173320000000     0          
C131     C      0.500000000000     0.315600000000     0.267500000000     0          
O132     O      0.000000000000     0.173320000000     0.904890000000     0          
C133     C      0.000000000000     0.267500000000     0.815600000000     0          
O134     O      0.000000000000     0.673320000000     0.404890000000     0          
C135     C      0.000000000000     0.767500000000     0.315600000000     0          
O136     O      0.500000000000     0.173320000000     0.404890000000     0          
C137     C      0.500000000000     0.267500000000     0.315600000000     0          
O138     O      0.500000000000     0.673320000000     0.904890000000     0          
C139     C      0.500000000000     0.767500000000     0.815600000000     0          
O140     O      0.000000000000     0.826680000000     0.904890000000     0          
C141     C      0.000000000000     0.732500000000     0.815600000000     0          
O142     O      0.000000000000     0.326680000000     0.404890000000     0          
C143     C      0.000000000000     0.232500000000     0.315600000000     0          
O144     O      0.500000000000     0.826680000000     0.404890000000     0          
C145     C      0.500000000000     0.732500000000     0.315600000000     0          
O146     O      0.500000000000     0.326680000000     0.904890000000     0          
C147     C      0.500000000000     0.232500000000     0.815600000000     0          
O148     O      0.000000000000     0.826680000000     0.095110000000     0          
C149     C      0.000000000000     0.732500000000     0.184400000000     0          
N150     N      0.000000000000     0.715700000000     0.121700000000     0          
O151     O      0.000000000000     0.326680000000     0.595110000000     0          
C152     C      0.000000000000     0.232500000000     0.684400000000     0          
O153     O      0.500000000000     0.826680000000     0.595110000000     0          
C154     C      0.500000000000     0.732500000000     0.684400000000     0          
N155     N      0.500000000000     0.715700000000     0.621700000000     0          
O156     O      0.500000000000     0.326680000000     0.095110000000     0          
C157     C      0.500000000000     0.232500000000     0.184400000000     0          
N158     N      0.500000000000     0.215700000000     0.121700000000     0          
O159     O      0.000000000000     0.173320000000     0.095110000000     0          
C160     C      0.000000000000     0.267500000000     0.184400000000     0          
O161     O      0.000000000000     0.673320000000     0.595110000000     0          
C162     C      0.000000000000     0.767500000000     0.684400000000     0          
N163     N      0.000000000000     0.784300000000     0.621700000000     0          
O164     O      0.500000000000     0.173320000000     0.595110000000     0          
C165     C      0.500000000000     0.267500000000     0.684400000000     0          
O166     O      0.500000000000     0.673320000000     0.095110000000     0          
C167     C      0.500000000000     0.767500000000     0.184400000000     0          
O168     O      0.173320000000     0.095110000000     0.000000000000     0          
C169     C      0.267500000000     0.184400000000     0.000000000000     0          
O170     O      0.173320000000     0.595110000000     0.500000000000     0          
C171     C      0.267500000000     0.684400000000     0.500000000000     0          
O172     O      0.673320000000     0.095110000000     0.500000000000     0          
C173     C      0.767500000000     0.184400000000     0.500000000000     0          
O174     O      0.673320000000     0.595110000000     0.000000000000     0          
C175     C      0.767500000000     0.684400000000     0.000000000000     0          
O176     O      0.826680000000     0.095110000000     0.000000000000     0          
C177     C      0.732500000000     0.184400000000     0.000000000000     0          
O178     O      0.826680000000     0.595110000000     0.500000000000     0          
C179     C      0.732500000000     0.684400000000     0.500000000000     0          
O180     O      0.326680000000     0.095110000000     0.500000000000     0          
C181     C      0.232500000000     0.184400000000     0.500000000000     0          
O182     O      0.326680000000     0.595110000000     0.000000000000     0          
C183     C      0.232500000000     0.684400000000     0.000000000000     0          
O184     O      0.826680000000     0.904890000000     0.000000000000     0          
C185     C      0.732500000000     0.815600000000     0.000000000000     0          
O186     O      0.826680000000     0.404890000000     0.500000000000     0          
C187     C      0.732500000000     0.315600000000     0.500000000000     0          
N188     N      0.715700000000     0.378300000000     0.500000000000     0          
O189     O      0.326680000000     0.904890000000     0.500000000000     0          
C190     C      0.232500000000     0.815600000000     0.500000000000     0          
N191     N      0.215700000000     0.878300000000     0.500000000000     0          
O192     O      0.326680000000     0.404890000000     0.000000000000     0          
C193     C      0.232500000000     0.315600000000     0.000000000000     0          
N194     N      0.215700000000     0.378300000000     0.000000000000     0          
O195     O      0.173320000000     0.904890000000     0.000000000000     0          
C196     C      0.267500000000     0.815600000000     0.000000000000     0          
O197     O      0.173320000000     0.404890000000     0.500000000000     0          
C198     C      0.267500000000     0.315600000000     0.500000000000     0          
N199     N      0.284300000000     0.378300000000     0.500000000000     0          
O200     O      0.673320000000     0.904890000000     0.500000000000     0          
C201     C      0.767500000000     0.815600000000     0.500000000000     0          
O202     O      0.673320000000     0.404890000000     0.000000000000     0          
C203     C      0.767500000000     0.315600000000     0.000000000000     0          
N204     N      0.784300000000     0.378300000000     0.000000000000     0          
O205     O      0.095110000000     0.000000000000     0.826680000000     0          
C206     C      0.184400000000     0.000000000000     0.732500000000     0          
N207     N      0.121700000000     0.000000000000     0.715700000000     0          
O208     O      0.095110000000     0.500000000000     0.326680000000     0          
C209     C      0.184400000000     0.500000000000     0.232500000000     0          
O210     O      0.595110000000     0.000000000000     0.326680000000     0          
C211     C      0.684400000000     0.000000000000     0.232500000000     0          
O212     O      0.595110000000     0.500000000000     0.826680000000     0          
C213     C      0.684400000000     0.500000000000     0.732500000000     0          
N214     N      0.621700000000     0.500000000000     0.715700000000     0          
O215     O      0.095110000000     0.000000000000     0.173320000000     0          
C216     C      0.184400000000     0.000000000000     0.267500000000     0          
O217     O      0.095110000000     0.500000000000     0.673320000000     0          
C218     C      0.184400000000     0.500000000000     0.767500000000     0          
O219     O      0.595110000000     0.000000000000     0.673320000000     0          
C220     C      0.684400000000     0.000000000000     0.767500000000     0          
N221     N      0.621700000000     0.000000000000     0.784300000000     0          
O222     O      0.595110000000     0.500000000000     0.173320000000     0          
C223     C      0.684400000000     0.500000000000     0.267500000000     0          
N224     N      0.621700000000     0.500000000000     0.284300000000     0          
O225     O      0.904890000000     0.000000000000     0.173320000000     0          
C226     C      0.815600000000     0.000000000000     0.267500000000     0          
O227     O      0.904890000000     0.500000000000     0.673320000000     0          
C228     C      0.815600000000     0.500000000000     0.767500000000     0          
O229     O      0.404890000000     0.000000000000     0.673320000000     0          
C230     C      0.315600000000     0.000000000000     0.767500000000     0          
O231     O      0.404890000000     0.500000000000     0.173320000000     0          
C232     C      0.315600000000     0.500000000000     0.267500000000     0          
O233     O      0.904890000000     0.000000000000     0.826680000000     0          
C234     C      0.815600000000     0.000000000000     0.732500000000     0          
O235     O      0.904890000000     0.500000000000     0.326680000000     0          
C236     C      0.815600000000     0.500000000000     0.232500000000     0          
O237     O      0.404890000000     0.000000000000     0.326680000000     0          
C238     C      0.315600000000     0.000000000000     0.232500000000     0          
O239     O      0.404890000000     0.500000000000     0.826680000000     0          
C240     C      0.315600000000     0.500000000000     0.732500000000     0          
O241     O      0.059870000000     0.059870000000     0.059870000000     0          
O242     O      0.059870000000     0.559870000000     0.559870000000     0          
O243     O      0.559870000000     0.059870000000     0.559870000000     0          
O244     O      0.559870000000     0.559870000000     0.059870000000     0          
O245     O      0.940130000000     0.940130000000     0.059870000000     0          
O246     O      0.940130000000     0.440130000000     0.559870000000     0          
O247     O      0.440130000000     0.940130000000     0.559870000000     0          
O248     O      0.440130000000     0.440130000000     0.059870000000     0          
O249     O      0.940130000000     0.059870000000     0.940130000000     0          
O250     O      0.940130000000     0.559870000000     0.440130000000     0          
O251     O      0.440130000000     0.059870000000     0.440130000000     0          
O252     O      0.440130000000     0.559870000000     0.940130000000     0          
O253     O      0.059870000000     0.940130000000     0.940130000000     0          
O254     O      0.059870000000     0.440130000000     0.440130000000     0          
O255     O      0.559870000000     0.940130000000     0.440130000000     0          
O256     O      0.559870000000     0.440130000000     0.940130000000     0          
O257     O      0.059870000000     0.059870000000     0.940130000000     0          
O258     O      0.059870000000     0.559870000000     0.440130000000     0          
O259     O      0.559870000000     0.059870000000     0.440130000000     0          
O260     O      0.559870000000     0.559870000000     0.940130000000     0          
O261     O      0.940130000000     0.940130000000     0.940130000000     0          
O262     O      0.940130000000     0.440130000000     0.440130000000     0          
O263     O      0.440130000000     0.940130000000     0.440130000000     0          
O264     O      0.440130000000     0.440130000000     0.940130000000     0          
O265     O      0.059870000000     0.940130000000     0.059870000000     0          
O266     O      0.059870000000     0.440130000000     0.559870000000     0          
O267     O      0.559870000000     0.940130000000     0.559870000000     0          
O268     O      0.559870000000     0.440130000000     0.059870000000     0          
O269     O      0.940130000000     0.059870000000     0.059870000000     0          
O270     O      0.940130000000     0.559870000000     0.559870000000     0          
O271     O      0.440130000000     0.059870000000     0.559870000000     0          
O272     O      0.440130000000     0.559870000000     0.059870000000     0          
C273     C      0.153600000000     0.000000000000     0.153600000000     0          
C274     C      0.205000000000     0.000000000000     0.205000000000     0          
C275     C      0.153600000000     0.500000000000     0.653600000000     0          
C276     C      0.205000000000     0.500000000000     0.705000000000     0          
C277     C      0.653600000000     0.000000000000     0.653600000000     0          
C278     C      0.705000000000     0.000000000000     0.705000000000     0          
C279     C      0.653600000000     0.500000000000     0.153600000000     0          
C280     C      0.705000000000     0.500000000000     0.205000000000     0          
C281     C      0.846400000000     0.000000000000     0.153600000000     0          
C282     C      0.795000000000     0.000000000000     0.205000000000     0          
C283     C      0.846400000000     0.500000000000     0.653600000000     0          
C284     C      0.795000000000     0.500000000000     0.705000000000     0          
C285     C      0.346400000000     0.000000000000     0.653600000000     0          
C286     C      0.295000000000     0.000000000000     0.705000000000     0          
C287     C      0.346400000000     0.500000000000     0.153600000000     0          
C288     C      0.295000000000     0.500000000000     0.205000000000     0          
C289     C      0.846400000000     0.000000000000     0.846400000000     0          
C290     C      0.795000000000     0.000000000000     0.795000000000     0          
C291     C      0.846400000000     0.500000000000     0.346400000000     0          
C292     C      0.795000000000     0.500000000000     0.295000000000     0          
C293     C      0.346400000000     0.000000000000     0.346400000000     0          
C294     C      0.295000000000     0.000000000000     0.295000000000     0          
C295     C      0.346400000000     0.500000000000     0.846400000000     0          
C296     C      0.295000000000     0.500000000000     0.795000000000     0          
C297     C      0.153600000000     0.000000000000     0.846400000000     0          
C298     C      0.205000000000     0.000000000000     0.795000000000     0          
C299     C      0.153600000000     0.500000000000     0.346400000000     0          
C300     C      0.205000000000     0.500000000000     0.295000000000     0          
C301     C      0.653600000000     0.000000000000     0.346400000000     0          
C302     C      0.705000000000     0.000000000000     0.295000000000     0          
C303     C      0.653600000000     0.500000000000     0.846400000000     0          
C304     C      0.705000000000     0.500000000000     0.795000000000     0          
C305     C      0.153600000000     0.153600000000     0.000000000000     0          
C306     C      0.205000000000     0.205000000000     0.000000000000     0          
C307     C      0.153600000000     0.653600000000     0.500000000000     0          
C308     C      0.205000000000     0.705000000000     0.500000000000     0          
C309     C      0.653600000000     0.153600000000     0.500000000000     0          
C310     C      0.705000000000     0.205000000000     0.500000000000     0          
C311     C      0.653600000000     0.653600000000     0.000000000000     0          
C312     C      0.705000000000     0.705000000000     0.000000000000     0          
C313     C      0.153600000000     0.846400000000     0.000000000000     0          
C314     C      0.205000000000     0.795000000000     0.000000000000     0          
C315     C      0.153600000000     0.346400000000     0.500000000000     0          
C316     C      0.205000000000     0.295000000000     0.500000000000     0          
C317     C      0.653600000000     0.846400000000     0.500000000000     0          
C318     C      0.705000000000     0.795000000000     0.500000000000     0          
C319     C      0.653600000000     0.346400000000     0.000000000000     0          
C320     C      0.705000000000     0.295000000000     0.000000000000     0          
C321     C      0.846400000000     0.846400000000     0.000000000000     0          
C322     C      0.795000000000     0.795000000000     0.000000000000     0          
C323     C      0.846400000000     0.346400000000     0.500000000000     0          
C324     C      0.795000000000     0.295000000000     0.500000000000     0          
C325     C      0.346400000000     0.846400000000     0.500000000000     0          
C326     C      0.295000000000     0.795000000000     0.500000000000     0          
C327     C      0.346400000000     0.346400000000     0.000000000000     0          
C328     C      0.295000000000     0.295000000000     0.000000000000     0          
C329     C      0.846400000000     0.153600000000     0.000000000000     0          
C330     C      0.795000000000     0.205000000000     0.000000000000     0          
C331     C      0.846400000000     0.653600000000     0.500000000000     0          
C332     C      0.795000000000     0.705000000000     0.500000000000     0          
C333     C      0.346400000000     0.153600000000     0.500000000000     0          
C334     C      0.295000000000     0.205000000000     0.500000000000     0          
C335     C      0.346400000000     0.653600000000     0.000000000000     0          
C336     C      0.295000000000     0.705000000000     0.000000000000     0          
C337     C      0.000000000000     0.153600000000     0.153600000000     0          
C338     C      0.000000000000     0.205000000000     0.205000000000     0          
C339     C      0.000000000000     0.653600000000     0.653600000000     0          
C340     C      0.000000000000     0.705000000000     0.705000000000     0          
C341     C      0.500000000000     0.153600000000     0.653600000000     0          
C342     C      0.500000000000     0.205000000000     0.705000000000     0          
C343     C      0.500000000000     0.653600000000     0.153600000000     0          
C344     C      0.500000000000     0.705000000000     0.205000000000     0          
C345     C      0.000000000000     0.153600000000     0.846400000000     0          
C346     C      0.000000000000     0.205000000000     0.795000000000     0          
C347     C      0.000000000000     0.653600000000     0.346400000000     0          
C348     C      0.000000000000     0.705000000000     0.295000000000     0          
C349     C      0.500000000000     0.153600000000     0.346400000000     0          
C350     C      0.500000000000     0.205000000000     0.295000000000     0          
C351     C      0.500000000000     0.653600000000     0.846400000000     0          
C352     C      0.500000000000     0.705000000000     0.795000000000     0          
C353     C      0.000000000000     0.846400000000     0.846400000000     0          
C354     C      0.000000000000     0.795000000000     0.795000000000     0          
C355     C      0.000000000000     0.346400000000     0.346400000000     0          
C356     C      0.000000000000     0.295000000000     0.295000000000     0          
C357     C      0.500000000000     0.846400000000     0.346400000000     0          
C358     C      0.500000000000     0.795000000000     0.295000000000     0          
C359     C      0.500000000000     0.346400000000     0.846400000000     0          
C360     C      0.500000000000     0.295000000000     0.795000000000     0          
C361     C      0.000000000000     0.846400000000     0.153600000000     0          
C362     C      0.000000000000     0.795000000000     0.205000000000     0          
C363     C      0.000000000000     0.346400000000     0.653600000000     0          
C364     C      0.000000000000     0.295000000000     0.705000000000     0          
C365     C      0.500000000000     0.846400000000     0.653600000000     0          
C366     C      0.500000000000     0.795000000000     0.705000000000     0          
C367     C      0.500000000000     0.346400000000     0.153600000000     0          
C368     C      0.500000000000     0.295000000000     0.205000000000     0          
H369     H      0.000000000000     0.630660000000     0.778680000000     0          
H370     H      0.000000000000     0.869340000000     0.721320000000     0          
H371     H      0.000000000000     0.721320000000     0.869340000000     0          
H372     H      0.988400000000     0.747940000000     0.584290000000     0          
H373     H      0.011600000000     0.834500000000     0.607490000000     0          
H374     H      0.587270000000     0.759060000000     0.967840000000     0          
H375     H      0.604500000000     0.823370000000     0.032160000000     0          
H376     H      0.869340000000     0.721320000000     0.000000000000     0          
H377     H      0.778680000000     0.630660000000     0.000000000000     0          
H378     H      0.721320000000     0.869340000000     0.000000000000     0          
H379     H      0.630660000000     0.278680000000     0.500000000000     0          
H380     H      0.869340000000     0.221320000000     0.500000000000     0          
H381     H      0.500000000000     0.130660000000     0.778680000000     0          
H382     H      0.467840000000     0.395500000000     0.676630000000     0          
H383     H      0.532160000000     0.412730000000     0.740940000000     0          
H384     H      0.500000000000     0.221320000000     0.869340000000     0          
H385     H      0.500000000000     0.278680000000     0.630660000000     0          
H386     H      0.778680000000     0.130660000000     0.500000000000     0          
H387     H      0.665500000000     0.392510000000     0.488400000000     0          
H388     H      0.752060000000     0.415710000000     0.511600000000     0          
H389     H      0.000000000000     0.130660000000     0.278680000000     0          
H390     H      0.000000000000     0.130660000000     0.721320000000     0          
H391     H      0.967840000000     0.395500000000     0.176630000000     0          
H392     H      0.032160000000     0.412730000000     0.240940000000     0          
H393     H      0.967840000000     0.412730000000     0.759060000000     0          
H394     H      0.032160000000     0.395500000000     0.823370000000     0          
H395     H      0.000000000000     0.278680000000     0.869340000000     0          
H396     H      0.000000000000     0.221320000000     0.369340000000     0          
H397     H      0.000000000000     0.221320000000     0.630660000000     0          
H398     H      0.000000000000     0.278680000000     0.130660000000     0          
H399     H      0.130660000000     0.278680000000     0.000000000000     0          
H400     H      0.630660000000     0.221320000000     0.000000000000     0          
H401     H      0.369340000000     0.221320000000     0.000000000000     0          
H402     H      0.869340000000     0.278680000000     0.000000000000     0          
H403     H      0.278680000000     0.130660000000     0.000000000000     0          
H404     H      0.721320000000     0.130660000000     0.000000000000     0          
H405     H      0.165500000000     0.392510000000     0.988400000000     0          
H406     H      0.252060000000     0.415710000000     0.011600000000     0          
H407     H      0.834500000000     0.392510000000     0.988400000000     0          
H408     H      0.747940000000     0.415710000000     0.011600000000     0          
H409     H      0.604500000000     0.676630000000     0.467840000000     0          
H410     H      0.587270000000     0.740940000000     0.532160000000     0          
H411     H      0.869340000000     0.778680000000     0.500000000000     0          
H412     H      0.500000000000     0.630660000000     0.721320000000     0          
H413     H      0.500000000000     0.869340000000     0.778680000000     0          
H414     H      0.500000000000     0.778680000000     0.869340000000     0          
H415     H      0.488400000000     0.752060000000     0.584290000000     0          
H416     H      0.511600000000     0.665500000000     0.607490000000     0          
H417     H      0.721320000000     0.630660000000     0.500000000000     0          
H418     H      0.778680000000     0.869340000000     0.500000000000     0          
H419     H      0.000000000000     0.630660000000     0.221320000000     0          
H420     H      0.000000000000     0.869340000000     0.278680000000     0          
H421     H      0.000000000000     0.778680000000     0.369340000000     0          
H422     H      0.988400000000     0.752060000000     0.084290000000     0          
H423     H      0.011600000000     0.665500000000     0.107490000000     0          
H424     H      0.104500000000     0.676630000000     0.967840000000     0          
H425     H      0.087270000000     0.740940000000     0.032160000000     0          
H426     H      0.369340000000     0.778680000000     0.000000000000     0          
H427     H      0.221320000000     0.630660000000     0.000000000000     0          
H428     H      0.278680000000     0.869340000000     0.000000000000     0          
H429     H      0.778680000000     0.000000000000     0.630660000000     0          
H430     H      0.721320000000     0.500000000000     0.630660000000     0          
H431     H      0.721320000000     0.000000000000     0.869340000000     0          
H432     H      0.778680000000     0.500000000000     0.869340000000     0          
H433     H      0.604500000000     0.467840000000     0.676630000000     0          
H434     H      0.587270000000     0.532160000000     0.740940000000     0          
H435     H      0.587270000000     0.967840000000     0.759060000000     0          
H436     H      0.604500000000     0.032160000000     0.823370000000     0          
H437     H      0.869340000000     0.500000000000     0.778680000000     0          
H438     H      0.869340000000     0.000000000000     0.721320000000     0          
H439     H      0.653600000000     0.054890000000     0.653600000000     0          
H440     H      0.846400000000     0.445110000000     0.653600000000     0          
H441     H      0.846400000000     0.054890000000     0.846400000000     0          
H442     H      0.653600000000     0.445110000000     0.846400000000     0          
H443     H      0.247940000000     0.488400000000     0.584290000000     0          
H444     H      0.334500000000     0.511600000000     0.607490000000     0          
H445     H      0.221320000000     0.000000000000     0.630660000000     0          
H446     H      0.221320000000     0.500000000000     0.869340000000     0          
H447     H      0.278680000000     0.000000000000     0.869340000000     0          
H448     H      0.104500000000     0.967840000000     0.676630000000     0          
H449     H      0.087270000000     0.032160000000     0.740940000000     0          
H450     H      0.130660000000     0.500000000000     0.778680000000     0          
H451     H      0.369340000000     0.000000000000     0.778680000000     0          
H452     H      0.369340000000     0.500000000000     0.721320000000     0          
H453     H      0.153600000000     0.554890000000     0.653600000000     0          
H454     H      0.346400000000     0.945110000000     0.653600000000     0          
H455     H      0.346400000000     0.554890000000     0.846400000000     0          
H456     H      0.153600000000     0.945110000000     0.846400000000     0          
H457     H      0.778680000000     0.500000000000     0.130660000000     0          
H458     H      0.752060000000     0.988400000000     0.084290000000     0          
H459     H      0.665500000000     0.011600000000     0.107490000000     0          
H460     H      0.721320000000     0.500000000000     0.369340000000     0          
H461     H      0.778680000000     0.000000000000     0.369340000000     0          
H462     H      0.630660000000     0.000000000000     0.221320000000     0          
H463     H      0.587270000000     0.467840000000     0.259060000000     0          
H464     H      0.604500000000     0.532160000000     0.323370000000     0          
H465     H      0.869340000000     0.000000000000     0.278680000000     0          
H466     H      0.869340000000     0.500000000000     0.221320000000     0          
H467     H      0.653600000000     0.554890000000     0.153600000000     0          
H468     H      0.846400000000     0.945110000000     0.153600000000     0          
H469     H      0.846400000000     0.554890000000     0.346400000000     0          
H470     H      0.653600000000     0.945110000000     0.346400000000     0          
H471     H      0.247940000000     0.988400000000     0.084290000000     0          
H472     H      0.334500000000     0.011600000000     0.107490000000     0          
H473     H      0.221320000000     0.500000000000     0.130660000000     0          
H474     H      0.221320000000     0.000000000000     0.369340000000     0          
H475     H      0.334500000000     0.488400000000     0.392510000000     0          
H476     H      0.247940000000     0.511600000000     0.415710000000     0          
H477     H      0.130660000000     0.500000000000     0.221320000000     0          
H478     H      0.130660000000     0.000000000000     0.278680000000     0          
H479     H      0.369340000000     0.500000000000     0.278680000000     0          
H480     H      0.369340000000     0.000000000000     0.221320000000     0          
H481     H      0.153600000000     0.054890000000     0.153600000000     0          
H482     H      0.346400000000     0.445110000000     0.153600000000     0          
H483     H      0.346400000000     0.054890000000     0.346400000000     0          
H484     H      0.153600000000     0.445110000000     0.346400000000     0          
H485     H      0.130660000000     0.221320000000     0.500000000000     0          
H486     H      0.369340000000     0.278680000000     0.500000000000     0          
H487     H      0.221320000000     0.130660000000     0.500000000000     0          
H488     H      0.334500000000     0.392510000000     0.488400000000     0          
H489     H      0.247940000000     0.415710000000     0.511600000000     0          
H490     H      0.130660000000     0.778680000000     0.500000000000     0          
H491     H      0.369340000000     0.721320000000     0.500000000000     0          
H492     H      0.278680000000     0.630660000000     0.500000000000     0          
H493     H      0.165500000000     0.892510000000     0.488400000000     0          
H494     H      0.252060000000     0.915710000000     0.511600000000     0          
H495     H      0.467840000000     0.587270000000     0.259060000000     0          
H496     H      0.532160000000     0.604500000000     0.323370000000     0          
H497     H      0.500000000000     0.869340000000     0.221320000000     0          
H498     H      0.500000000000     0.721320000000     0.369340000000     0          
H499     H      0.500000000000     0.778680000000     0.130660000000     0          
H500     H      0.500000000000     0.130660000000     0.221320000000     0          
H501     H      0.500000000000     0.369340000000     0.278680000000     0          
H502     H      0.500000000000     0.278680000000     0.369340000000     0          
H503     H      0.488400000000     0.252060000000     0.084290000000     0          
H504     H      0.511600000000     0.165500000000     0.107490000000     0          


