data_HERHUK02

_audit_creation_method RASPA-1.0
_audit_creation_date 2020-11-2
_audit_author_name 'Rocio Bueno-Perez'

_cell_length_a    40.962
_cell_length_b    40.962
_cell_length_c    15.438
_cell_angle_alpha 90
_cell_angle_beta  90
_cell_angle_gamma 120
_cell_volume      22432.8

_symmetry_cell_setting          triclinic
_symmetry_space_group_name_Hall 'P 1'
_symmetry_space_group_name_H-M  'P 1'
_symmetry_Int_Tables_number     1

_symmetry_equiv_pos_as_xyz 'x,y,z'

loop_
_atom_site_label
_atom_site_type_symbol
_atom_site_fract_x
_atom_site_fract_y
_atom_site_fract_z
_atom_site_charge
O1       O      0.517500000000     0.101200000000     0.089120000000     0          
O2       O      0.465690000000     0.056610000000     0.158630000000     0          
C3       C      0.476400000000     0.209460000000     0.405300000000     0          
H4       H      0.475600000000     0.189400000000     0.435400000000     0          
C5       C      0.487240000000     0.121050000000     0.185600000000     0          
C6       C      0.459100000000     0.112660000000     0.243900000000     0          
H7       H      0.442300000000     0.087500000000     0.256800000000     0          
C8       C      0.489810000000     0.090520000000     0.140700000000     0          
C9       C      0.477430000000     0.209200000000     0.313400000000     0          
C10      C      0.454620000000     0.140650000000     0.285000000000     0          
H11      H      0.434900000000     0.134400000000     0.323500000000     0          
C12      C      0.480920000000     0.178390000000     0.266400000000     0          
C13      C      0.508910000000     0.186700000000     0.206600000000     0          
H14      H      0.525900000000     0.211600000000     0.192000000000     0          
C15      C      0.511460000000     0.157920000000     0.168800000000     0          
H16      H      0.530900000000     0.164000000000     0.129500000000     0          
O17      O      0.898800000000     0.416300000000     0.089120000000     0          
O18      O      0.943390000000     0.409080000000     0.158630000000     0          
C19      C      0.790540000000     0.266940000000     0.405300000000     0          
H20      H      0.810600000000     0.286200000000     0.435400000000     0          
C21      C      0.878950000000     0.366190000000     0.185600000000     0          
C22      C      0.887340000000     0.346440000000     0.243900000000     0          
H23      H      0.912500000000     0.354800000000     0.256800000000     0          
C24      C      0.909480000000     0.399290000000     0.140700000000     0          
C25      C      0.790800000000     0.268230000000     0.313400000000     0          
C26      C      0.859350000000     0.313970000000     0.285000000000     0          
H27      H      0.865600000000     0.300500000000     0.323500000000     0          
C28      C      0.821610000000     0.302530000000     0.266400000000     0          
C29      C      0.813300000000     0.322210000000     0.206600000000     0          
H30      H      0.788400000000     0.314300000000     0.192000000000     0          
C31      C      0.842080000000     0.353540000000     0.168800000000     0          
H32      H      0.836000000000     0.366900000000     0.129500000000     0          
O33      O      0.583700000000     0.482500000000     0.089120000000     0          
O34      O      0.590920000000     0.534310000000     0.158630000000     0          
C35      C      0.733060000000     0.523600000000     0.405300000000     0          
H36      H      0.713800000000     0.524400000000     0.435400000000     0          
C37      C      0.633810000000     0.512760000000     0.185600000000     0          
C38      C      0.653560000000     0.540900000000     0.243900000000     0          
H39      H      0.645200000000     0.557700000000     0.256800000000     0          
C40      C      0.600710000000     0.510190000000     0.140700000000     0          
C41      C      0.731770000000     0.522570000000     0.313400000000     0          
C42      C      0.686030000000     0.545380000000     0.285000000000     0          
H43      H      0.699500000000     0.565100000000     0.323500000000     0          
C44      C      0.697470000000     0.519080000000     0.266400000000     0          
C45      C      0.677790000000     0.491090000000     0.206600000000     0          
H46      H      0.685700000000     0.474100000000     0.192000000000     0          
C47      C      0.646460000000     0.488540000000     0.168800000000     0          
H48      H      0.633100000000     0.469100000000     0.129500000000     0          
O49      O      0.482500000000     0.898800000000     0.089120000000     0          
O50      O      0.534310000000     0.943390000000     0.158630000000     0          
C51      C      0.523600000000     0.790540000000     0.405300000000     0          
H52      H      0.524400000000     0.810600000000     0.435400000000     0          
C53      C      0.512760000000     0.878950000000     0.185600000000     0          
C54      C      0.540900000000     0.887340000000     0.243900000000     0          
H55      H      0.557700000000     0.912500000000     0.256800000000     0          
C56      C      0.510190000000     0.909480000000     0.140700000000     0          
C57      C      0.522570000000     0.790800000000     0.313400000000     0          
C58      C      0.545380000000     0.859350000000     0.285000000000     0          
H59      H      0.565100000000     0.865600000000     0.323500000000     0          
C60      C      0.519080000000     0.821610000000     0.266400000000     0          
C61      C      0.491090000000     0.813300000000     0.206600000000     0          
H62      H      0.474100000000     0.788400000000     0.192000000000     0          
C63      C      0.488540000000     0.842080000000     0.168800000000     0          
H64      H      0.469100000000     0.836000000000     0.129500000000     0          
O65      O      0.101200000000     0.583700000000     0.089120000000     0          
O66      O      0.056610000000     0.590920000000     0.158630000000     0          
C67      C      0.209460000000     0.733060000000     0.405300000000     0          
H68      H      0.189400000000     0.713800000000     0.435400000000     0          
C69      C      0.121050000000     0.633810000000     0.185600000000     0          
C70      C      0.112660000000     0.653560000000     0.243900000000     0          
H71      H      0.087500000000     0.645200000000     0.256800000000     0          
C72      C      0.090520000000     0.600710000000     0.140700000000     0          
C73      C      0.209200000000     0.731770000000     0.313400000000     0          
C74      C      0.140650000000     0.686030000000     0.285000000000     0          
H75      H      0.134400000000     0.699500000000     0.323500000000     0          
C76      C      0.178390000000     0.697470000000     0.266400000000     0          
C77      C      0.186700000000     0.677790000000     0.206600000000     0          
H78      H      0.211600000000     0.685700000000     0.192000000000     0          
C79      C      0.157920000000     0.646460000000     0.168800000000     0          
H80      H      0.164000000000     0.633100000000     0.129500000000     0          
O81      O      0.416300000000     0.517500000000     0.089120000000     0          
O82      O      0.409080000000     0.465690000000     0.158630000000     0          
C83      C      0.266940000000     0.476400000000     0.405300000000     0          
H84      H      0.286200000000     0.475600000000     0.435400000000     0          
C85      C      0.366190000000     0.487240000000     0.185600000000     0          
C86      C      0.346440000000     0.459100000000     0.243900000000     0          
H87      H      0.354800000000     0.442300000000     0.256800000000     0          
C88      C      0.399290000000     0.489810000000     0.140700000000     0          
C89      C      0.268230000000     0.477430000000     0.313400000000     0          
C90      C      0.313970000000     0.454620000000     0.285000000000     0          
H91      H      0.300500000000     0.434900000000     0.323500000000     0          
C92      C      0.302530000000     0.480920000000     0.266400000000     0          
C93      C      0.322210000000     0.508910000000     0.206600000000     0          
H94      H      0.314300000000     0.525900000000     0.192000000000     0          
C95      C      0.353540000000     0.511460000000     0.168800000000     0          
H96      H      0.366900000000     0.530900000000     0.129500000000     0          
O97      O      0.101200000000     0.517500000000     0.910880000000     0          
O98      O      0.056610000000     0.465690000000     0.841370000000     0          
C99      C      0.209460000000     0.476400000000     0.594700000000     0          
H100     H      0.189400000000     0.475600000000     0.564600000000     0          
C101     C      0.121050000000     0.487240000000     0.814400000000     0          
C102     C      0.112660000000     0.459100000000     0.756100000000     0          
H103     H      0.087500000000     0.442300000000     0.743200000000     0          
C104     C      0.090520000000     0.489810000000     0.859300000000     0          
C105     C      0.209200000000     0.477430000000     0.686600000000     0          
C106     C      0.140650000000     0.454620000000     0.715000000000     0          
H107     H      0.134400000000     0.434900000000     0.676500000000     0          
C108     C      0.178390000000     0.480920000000     0.733600000000     0          
C109     C      0.186700000000     0.508910000000     0.793400000000     0          
H110     H      0.211600000000     0.525900000000     0.808000000000     0          
C111     C      0.157920000000     0.511460000000     0.831200000000     0          
H112     H      0.164000000000     0.530900000000     0.870500000000     0          
O113     O      0.416300000000     0.898800000000     0.910880000000     0          
O114     O      0.409080000000     0.943390000000     0.841370000000     0          
C115     C      0.266940000000     0.790540000000     0.594700000000     0          
H116     H      0.286200000000     0.810600000000     0.564600000000     0          
C117     C      0.366190000000     0.878950000000     0.814400000000     0          
C118     C      0.346440000000     0.887340000000     0.756100000000     0          
H119     H      0.354800000000     0.912500000000     0.743200000000     0          
C120     C      0.399290000000     0.909480000000     0.859300000000     0          
C121     C      0.268230000000     0.790800000000     0.686600000000     0          
C122     C      0.313970000000     0.859350000000     0.715000000000     0          
H123     H      0.300500000000     0.865600000000     0.676500000000     0          
C124     C      0.302530000000     0.821610000000     0.733600000000     0          
C125     C      0.322210000000     0.813300000000     0.793400000000     0          
H126     H      0.314300000000     0.788400000000     0.808000000000     0          
C127     C      0.353540000000     0.842080000000     0.831200000000     0          
H128     H      0.366900000000     0.836000000000     0.870500000000     0          
O129     O      0.482500000000     0.583700000000     0.910880000000     0          
O130     O      0.534310000000     0.590920000000     0.841370000000     0          
C131     C      0.523600000000     0.733060000000     0.594700000000     0          
H132     H      0.524400000000     0.713800000000     0.564600000000     0          
C133     C      0.512760000000     0.633810000000     0.814400000000     0          
C134     C      0.540900000000     0.653560000000     0.756100000000     0          
H135     H      0.557700000000     0.645200000000     0.743200000000     0          
C136     C      0.510190000000     0.600710000000     0.859300000000     0          
C137     C      0.522570000000     0.731770000000     0.686600000000     0          
C138     C      0.545380000000     0.686030000000     0.715000000000     0          
H139     H      0.565100000000     0.699500000000     0.676500000000     0          
C140     C      0.519080000000     0.697470000000     0.733600000000     0          
C141     C      0.491090000000     0.677790000000     0.793400000000     0          
H142     H      0.474100000000     0.685700000000     0.808000000000     0          
C143     C      0.488540000000     0.646460000000     0.831200000000     0          
H144     H      0.469100000000     0.633100000000     0.870500000000     0          
O145     O      0.898800000000     0.482500000000     0.910880000000     0          
O146     O      0.943390000000     0.534310000000     0.841370000000     0          
C147     C      0.790540000000     0.523600000000     0.594700000000     0          
H148     H      0.810600000000     0.524400000000     0.564600000000     0          
C149     C      0.878950000000     0.512760000000     0.814400000000     0          
C150     C      0.887340000000     0.540900000000     0.756100000000     0          
H151     H      0.912500000000     0.557700000000     0.743200000000     0          
C152     C      0.909480000000     0.510190000000     0.859300000000     0          
C153     C      0.790800000000     0.522570000000     0.686600000000     0          
C154     C      0.859350000000     0.545380000000     0.715000000000     0          
H155     H      0.865600000000     0.565100000000     0.676500000000     0          
C156     C      0.821610000000     0.519080000000     0.733600000000     0          
C157     C      0.813300000000     0.491090000000     0.793400000000     0          
H158     H      0.788400000000     0.474100000000     0.808000000000     0          
C159     C      0.842080000000     0.488540000000     0.831200000000     0          
H160     H      0.836000000000     0.469100000000     0.870500000000     0          
O161     O      0.583700000000     0.101200000000     0.910880000000     0          
O162     O      0.590920000000     0.056610000000     0.841370000000     0          
C163     C      0.733060000000     0.209460000000     0.594700000000     0          
H164     H      0.713800000000     0.189400000000     0.564600000000     0          
C165     C      0.633810000000     0.121050000000     0.814400000000     0          
C166     C      0.653560000000     0.112660000000     0.756100000000     0          
H167     H      0.645200000000     0.087500000000     0.743200000000     0          
C168     C      0.600710000000     0.090520000000     0.859300000000     0          
C169     C      0.731770000000     0.209200000000     0.686600000000     0          
C170     C      0.686030000000     0.140650000000     0.715000000000     0          
H171     H      0.699500000000     0.134400000000     0.676500000000     0          
C172     C      0.697470000000     0.178390000000     0.733600000000     0          
C173     C      0.677790000000     0.186700000000     0.793400000000     0          
H174     H      0.685700000000     0.211600000000     0.808000000000     0          
C175     C      0.646460000000     0.157920000000     0.831200000000     0          
H176     H      0.633100000000     0.164000000000     0.870500000000     0          
O177     O      0.517500000000     0.416300000000     0.910880000000     0          
O178     O      0.465690000000     0.409080000000     0.841370000000     0          
C179     C      0.476400000000     0.266940000000     0.594700000000     0          
H180     H      0.475600000000     0.286200000000     0.564600000000     0          
C181     C      0.487240000000     0.366190000000     0.814400000000     0          
C182     C      0.459100000000     0.346440000000     0.756100000000     0          
H183     H      0.442300000000     0.354800000000     0.743200000000     0          
C184     C      0.489810000000     0.399290000000     0.859300000000     0          
C185     C      0.477430000000     0.268230000000     0.686600000000     0          
C186     C      0.454620000000     0.313970000000     0.715000000000     0          
H187     H      0.434900000000     0.300500000000     0.676500000000     0          
C188     C      0.480920000000     0.302530000000     0.733600000000     0          
C189     C      0.508910000000     0.322210000000     0.793400000000     0          
H190     H      0.525900000000     0.314300000000     0.808000000000     0          
C191     C      0.511460000000     0.353540000000     0.831200000000     0          
H192     H      0.530900000000     0.366900000000     0.870500000000     0          
O193     O      0.482500000000     0.898800000000     0.910880000000     0          
O194     O      0.534310000000     0.943390000000     0.841370000000     0          
C195     C      0.523600000000     0.790540000000     0.594700000000     0          
H196     H      0.524400000000     0.810600000000     0.564600000000     0          
C197     C      0.512760000000     0.878950000000     0.814400000000     0          
C198     C      0.540900000000     0.887340000000     0.756100000000     0          
H199     H      0.557700000000     0.912500000000     0.743200000000     0          
C200     C      0.510190000000     0.909480000000     0.859300000000     0          
C201     C      0.522570000000     0.790800000000     0.686600000000     0          
C202     C      0.545380000000     0.859350000000     0.715000000000     0          
H203     H      0.565100000000     0.865600000000     0.676500000000     0          
C204     C      0.519080000000     0.821610000000     0.733600000000     0          
C205     C      0.491090000000     0.813300000000     0.793400000000     0          
H206     H      0.474100000000     0.788400000000     0.808000000000     0          
C207     C      0.488540000000     0.842080000000     0.831200000000     0          
H208     H      0.469100000000     0.836000000000     0.870500000000     0          
O209     O      0.101200000000     0.583700000000     0.910880000000     0          
O210     O      0.056610000000     0.590920000000     0.841370000000     0          
C211     C      0.209460000000     0.733060000000     0.594700000000     0          
H212     H      0.189400000000     0.713800000000     0.564600000000     0          
C213     C      0.121050000000     0.633810000000     0.814400000000     0          
C214     C      0.112660000000     0.653560000000     0.756100000000     0          
H215     H      0.087500000000     0.645200000000     0.743200000000     0          
C216     C      0.090520000000     0.600710000000     0.859300000000     0          
C217     C      0.209200000000     0.731770000000     0.686600000000     0          
C218     C      0.140650000000     0.686030000000     0.715000000000     0          
H219     H      0.134400000000     0.699500000000     0.676500000000     0          
C220     C      0.178390000000     0.697470000000     0.733600000000     0          
C221     C      0.186700000000     0.677790000000     0.793400000000     0          
H222     H      0.211600000000     0.685700000000     0.808000000000     0          
C223     C      0.157920000000     0.646460000000     0.831200000000     0          
H224     H      0.164000000000     0.633100000000     0.870500000000     0          
O225     O      0.416300000000     0.517500000000     0.910880000000     0          
O226     O      0.409080000000     0.465690000000     0.841370000000     0          
C227     C      0.266940000000     0.476400000000     0.594700000000     0          
H228     H      0.286200000000     0.475600000000     0.564600000000     0          
C229     C      0.366190000000     0.487240000000     0.814400000000     0          
C230     C      0.346440000000     0.459100000000     0.756100000000     0          
H231     H      0.354800000000     0.442300000000     0.743200000000     0          
C232     C      0.399290000000     0.489810000000     0.859300000000     0          
C233     C      0.268230000000     0.477430000000     0.686600000000     0          
C234     C      0.313970000000     0.454620000000     0.715000000000     0          
H235     H      0.300500000000     0.434900000000     0.676500000000     0          
C236     C      0.302530000000     0.480920000000     0.733600000000     0          
C237     C      0.322210000000     0.508910000000     0.793400000000     0          
H238     H      0.314300000000     0.525900000000     0.808000000000     0          
C239     C      0.353540000000     0.511460000000     0.831200000000     0          
H240     H      0.366900000000     0.530900000000     0.870500000000     0          
O241     O      0.517500000000     0.101200000000     0.910880000000     0          
O242     O      0.465690000000     0.056610000000     0.841370000000     0          
C243     C      0.476400000000     0.209460000000     0.594700000000     0          
H244     H      0.475600000000     0.189400000000     0.564600000000     0          
C245     C      0.487240000000     0.121050000000     0.814400000000     0          
C246     C      0.459100000000     0.112660000000     0.756100000000     0          
H247     H      0.442300000000     0.087500000000     0.743200000000     0          
C248     C      0.489810000000     0.090520000000     0.859300000000     0          
C249     C      0.477430000000     0.209200000000     0.686600000000     0          
C250     C      0.454620000000     0.140650000000     0.715000000000     0          
H251     H      0.434900000000     0.134400000000     0.676500000000     0          
C252     C      0.480920000000     0.178390000000     0.733600000000     0          
C253     C      0.508910000000     0.186700000000     0.793400000000     0          
H254     H      0.525900000000     0.211600000000     0.808000000000     0          
C255     C      0.511460000000     0.157920000000     0.831200000000     0          
H256     H      0.530900000000     0.164000000000     0.870500000000     0          
O257     O      0.898800000000     0.416300000000     0.910880000000     0          
O258     O      0.943390000000     0.409080000000     0.841370000000     0          
C259     C      0.790540000000     0.266940000000     0.594700000000     0          
H260     H      0.810600000000     0.286200000000     0.564600000000     0          
C261     C      0.878950000000     0.366190000000     0.814400000000     0          
C262     C      0.887340000000     0.346440000000     0.756100000000     0          
H263     H      0.912500000000     0.354800000000     0.743200000000     0          
C264     C      0.909480000000     0.399290000000     0.859300000000     0          
C265     C      0.790800000000     0.268230000000     0.686600000000     0          
C266     C      0.859350000000     0.313970000000     0.715000000000     0          
H267     H      0.865600000000     0.300500000000     0.676500000000     0          
C268     C      0.821610000000     0.302530000000     0.733600000000     0          
C269     C      0.813300000000     0.322210000000     0.793400000000     0          
H270     H      0.788400000000     0.314300000000     0.808000000000     0          
C271     C      0.842080000000     0.353540000000     0.831200000000     0          
H272     H      0.836000000000     0.366900000000     0.870500000000     0          
O273     O      0.583700000000     0.482500000000     0.910880000000     0          
O274     O      0.590920000000     0.534310000000     0.841370000000     0          
C275     C      0.733060000000     0.523600000000     0.594700000000     0          
H276     H      0.713800000000     0.524400000000     0.564600000000     0          
C277     C      0.633810000000     0.512760000000     0.814400000000     0          
C278     C      0.653560000000     0.540900000000     0.756100000000     0          
H279     H      0.645200000000     0.557700000000     0.743200000000     0          
C280     C      0.600710000000     0.510190000000     0.859300000000     0          
C281     C      0.731770000000     0.522570000000     0.686600000000     0          
C282     C      0.686030000000     0.545380000000     0.715000000000     0          
H283     H      0.699500000000     0.565100000000     0.676500000000     0          
C284     C      0.697470000000     0.519080000000     0.733600000000     0          
C285     C      0.677790000000     0.491090000000     0.793400000000     0          
H286     H      0.685700000000     0.474100000000     0.808000000000     0          
C287     C      0.646460000000     0.488540000000     0.831200000000     0          
H288     H      0.633100000000     0.469100000000     0.870500000000     0          
O289     O      0.898800000000     0.482500000000     0.089120000000     0          
O290     O      0.943390000000     0.534310000000     0.158630000000     0          
C291     C      0.790540000000     0.523600000000     0.405300000000     0          
H292     H      0.810600000000     0.524400000000     0.435400000000     0          
C293     C      0.878950000000     0.512760000000     0.185600000000     0          
C294     C      0.887340000000     0.540900000000     0.243900000000     0          
H295     H      0.912500000000     0.557700000000     0.256800000000     0          
C296     C      0.909480000000     0.510190000000     0.140700000000     0          
C297     C      0.790800000000     0.522570000000     0.313400000000     0          
C298     C      0.859350000000     0.545380000000     0.285000000000     0          
H299     H      0.865600000000     0.565100000000     0.323500000000     0          
C300     C      0.821610000000     0.519080000000     0.266400000000     0          
C301     C      0.813300000000     0.491090000000     0.206600000000     0          
H302     H      0.788400000000     0.474100000000     0.192000000000     0          
C303     C      0.842080000000     0.488540000000     0.168800000000     0          
H304     H      0.836000000000     0.469100000000     0.129500000000     0          
O305     O      0.583700000000     0.101200000000     0.089120000000     0          
O306     O      0.590920000000     0.056610000000     0.158630000000     0          
C307     C      0.733060000000     0.209460000000     0.405300000000     0          
H308     H      0.713800000000     0.189400000000     0.435400000000     0          
C309     C      0.633810000000     0.121050000000     0.185600000000     0          
C310     C      0.653560000000     0.112660000000     0.243900000000     0          
H311     H      0.645200000000     0.087500000000     0.256800000000     0          
C312     C      0.600710000000     0.090520000000     0.140700000000     0          
C313     C      0.731770000000     0.209200000000     0.313400000000     0          
C314     C      0.686030000000     0.140650000000     0.285000000000     0          
H315     H      0.699500000000     0.134400000000     0.323500000000     0          
C316     C      0.697470000000     0.178390000000     0.266400000000     0          
C317     C      0.677790000000     0.186700000000     0.206600000000     0          
H318     H      0.685700000000     0.211600000000     0.192000000000     0          
C319     C      0.646460000000     0.157920000000     0.168800000000     0          
H320     H      0.633100000000     0.164000000000     0.129500000000     0          
O321     O      0.517500000000     0.416300000000     0.089120000000     0          
O322     O      0.465690000000     0.409080000000     0.158630000000     0          
C323     C      0.476400000000     0.266940000000     0.405300000000     0          
H324     H      0.475600000000     0.286200000000     0.435400000000     0          
C325     C      0.487240000000     0.366190000000     0.185600000000     0          
C326     C      0.459100000000     0.346440000000     0.243900000000     0          
H327     H      0.442300000000     0.354800000000     0.256800000000     0          
C328     C      0.489810000000     0.399290000000     0.140700000000     0          
C329     C      0.477430000000     0.268230000000     0.313400000000     0          
C330     C      0.454620000000     0.313970000000     0.285000000000     0          
H331     H      0.434900000000     0.300500000000     0.323500000000     0          
C332     C      0.480920000000     0.302530000000     0.266400000000     0          
C333     C      0.508910000000     0.322210000000     0.206600000000     0          
H334     H      0.525900000000     0.314300000000     0.192000000000     0          
C335     C      0.511460000000     0.353540000000     0.168800000000     0          
H336     H      0.530900000000     0.366900000000     0.129500000000     0          
O337     O      0.101200000000     0.517500000000     0.089120000000     0          
O338     O      0.056610000000     0.465690000000     0.158630000000     0          
C339     C      0.209460000000     0.476400000000     0.405300000000     0          
H340     H      0.189400000000     0.475600000000     0.435400000000     0          
C341     C      0.121050000000     0.487240000000     0.185600000000     0          
C342     C      0.112660000000     0.459100000000     0.243900000000     0          
H343     H      0.087500000000     0.442300000000     0.256800000000     0          
C344     C      0.090520000000     0.489810000000     0.140700000000     0          
C345     C      0.209200000000     0.477430000000     0.313400000000     0          
C346     C      0.140650000000     0.454620000000     0.285000000000     0          
H347     H      0.134400000000     0.434900000000     0.323500000000     0          
C348     C      0.178390000000     0.480920000000     0.266400000000     0          
C349     C      0.186700000000     0.508910000000     0.206600000000     0          
H350     H      0.211600000000     0.525900000000     0.192000000000     0          
C351     C      0.157920000000     0.511460000000     0.168800000000     0          
H352     H      0.164000000000     0.530900000000     0.129500000000     0          
O353     O      0.416300000000     0.898800000000     0.089120000000     0          
O354     O      0.409080000000     0.943390000000     0.158630000000     0          
C355     C      0.266940000000     0.790540000000     0.405300000000     0          
H356     H      0.286200000000     0.810600000000     0.435400000000     0          
C357     C      0.366190000000     0.878950000000     0.185600000000     0          
C358     C      0.346440000000     0.887340000000     0.243900000000     0          
H359     H      0.354800000000     0.912500000000     0.256800000000     0          
C360     C      0.399290000000     0.909480000000     0.140700000000     0          
C361     C      0.268230000000     0.790800000000     0.313400000000     0          
C362     C      0.313970000000     0.859350000000     0.285000000000     0          
H363     H      0.300500000000     0.865600000000     0.323500000000     0          
C364     C      0.302530000000     0.821610000000     0.266400000000     0          
C365     C      0.322210000000     0.813300000000     0.206600000000     0          
H366     H      0.314300000000     0.788400000000     0.192000000000     0          
C367     C      0.353540000000     0.842080000000     0.168800000000     0          
H368     H      0.366900000000     0.836000000000     0.129500000000     0          
O369     O      0.482500000000     0.583700000000     0.089120000000     0          
O370     O      0.534310000000     0.590920000000     0.158630000000     0          
C371     C      0.523600000000     0.733060000000     0.405300000000     0          
H372     H      0.524400000000     0.713800000000     0.435400000000     0          
C373     C      0.512760000000     0.633810000000     0.185600000000     0          
C374     C      0.540900000000     0.653560000000     0.243900000000     0          
H375     H      0.557700000000     0.645200000000     0.256800000000     0          
C376     C      0.510190000000     0.600710000000     0.140700000000     0          
C377     C      0.522570000000     0.731770000000     0.313400000000     0          
C378     C      0.545380000000     0.686030000000     0.285000000000     0          
H379     H      0.565100000000     0.699500000000     0.323500000000     0          
C380     C      0.519080000000     0.697470000000     0.266400000000     0          
C381     C      0.491090000000     0.677790000000     0.206600000000     0          
H382     H      0.474100000000     0.685700000000     0.192000000000     0          
C383     C      0.488540000000     0.646460000000     0.168800000000     0          
H384     H      0.469100000000     0.633100000000     0.129500000000     0          
Zr385    Zr     0.534900000000     0.069790000000     0.000000000000     0          
Zr386    Zr     0.930210000000     0.465100000000     0.000000000000     0          
Zr387    Zr     0.534900000000     0.465100000000     0.000000000000     0          
Zr388    Zr     0.465100000000     0.930210000000     0.000000000000     0          
Zr389    Zr     0.069790000000     0.534900000000     0.000000000000     0          
Zr390    Zr     0.465100000000     0.534900000000     0.000000000000     0          
Zr391    Zr     0.456510000000     0.000000000000     0.113980000000     0          
Zr392    Zr     0.000000000000     0.456510000000     0.113980000000     0          
Zr393    Zr     0.543490000000     0.543490000000     0.113980000000     0          
Zr394    Zr     0.543490000000     0.000000000000     0.113980000000     0          
Zr395    Zr     0.000000000000     0.543490000000     0.113980000000     0          
Zr396    Zr     0.456510000000     0.456510000000     0.113980000000     0          
Zr397    Zr     0.000000000000     0.456510000000     0.886020000000     0          
Zr398    Zr     0.456510000000     0.000000000000     0.886020000000     0          
Zr399    Zr     0.543490000000     0.543490000000     0.886020000000     0          
Zr400    Zr     0.000000000000     0.543490000000     0.886020000000     0          
Zr401    Zr     0.543490000000     0.000000000000     0.886020000000     0          
Zr402    Zr     0.456510000000     0.456510000000     0.886020000000     0          
O403     O      0.516320000000     0.032650000000     0.116400000000     0          
O404     O      0.967350000000     0.483680000000     0.116400000000     0          
O405     O      0.516320000000     0.483680000000     0.116400000000     0          
O406     O      0.483680000000     0.967350000000     0.116400000000     0          
O407     O      0.032650000000     0.516320000000     0.116400000000     0          
O408     O      0.483680000000     0.516320000000     0.116400000000     0          
O409     O      0.032650000000     0.516320000000     0.883600000000     0          
O410     O      0.483680000000     0.967350000000     0.883600000000     0          
O411     O      0.483680000000     0.516320000000     0.883600000000     0          
O412     O      0.967350000000     0.483680000000     0.883600000000     0          
O413     O      0.516320000000     0.032650000000     0.883600000000     0          
O414     O      0.516320000000     0.483680000000     0.883600000000     0          
O415     O      0.475350000000     0.034360000000     0.000000000000     0          
O416     O      0.965640000000     0.440990000000     0.000000000000     0          
O417     O      0.559010000000     0.524650000000     0.000000000000     0          
O418     O      0.524650000000     0.965640000000     0.000000000000     0          
O419     O      0.034360000000     0.559010000000     0.000000000000     0          
O420     O      0.440990000000     0.475350000000     0.000000000000     0          
O421     O      0.034360000000     0.475350000000     0.000000000000     0          
O422     O      0.440990000000     0.965640000000     0.000000000000     0          
O423     O      0.524650000000     0.559010000000     0.000000000000     0          
O424     O      0.965640000000     0.524650000000     0.000000000000     0          
O425     O      0.559010000000     0.034360000000     0.000000000000     0          
O426     O      0.475350000000     0.440990000000     0.000000000000     0          
C427     C      0.476600000000     0.238300000000     0.451400000000     0          
O428     O      0.478590000000     0.239290000000     0.177800000000     0          
C429     C      0.477500000000     0.238750000000     0.265900000000     0          
C430     C      0.761700000000     0.238300000000     0.451400000000     0          
O431     O      0.760710000000     0.239290000000     0.177800000000     0          
C432     C      0.761250000000     0.238750000000     0.265900000000     0          
C433     C      0.761700000000     0.523400000000     0.451400000000     0          
O434     O      0.760710000000     0.521410000000     0.177800000000     0          
C435     C      0.761250000000     0.522500000000     0.265900000000     0          
C436     C      0.523400000000     0.761700000000     0.451400000000     0          
O437     O      0.521410000000     0.760700000000     0.177800000000     0          
C438     C      0.522500000000     0.761250000000     0.265900000000     0          
C439     C      0.238300000000     0.761700000000     0.451400000000     0          
O440     O      0.239290000000     0.760710000000     0.177800000000     0          
C441     C      0.238750000000     0.761250000000     0.265900000000     0          
C442     C      0.238300000000     0.476600000000     0.451400000000     0          
O443     O      0.239290000000     0.478590000000     0.177800000000     0          
C444     C      0.238750000000     0.477500000000     0.265900000000     0          
C445     C      0.238300000000     0.476600000000     0.548600000000     0          
O446     O      0.239290000000     0.478590000000     0.822200000000     0          
C447     C      0.238750000000     0.477500000000     0.734100000000     0          
C448     C      0.238300000000     0.761700000000     0.548600000000     0          
O449     O      0.239290000000     0.760710000000     0.822200000000     0          
C450     C      0.238750000000     0.761250000000     0.734100000000     0          
C451     C      0.523400000000     0.761700000000     0.548600000000     0          
O452     O      0.521410000000     0.760700000000     0.822200000000     0          
C453     C      0.522500000000     0.761250000000     0.734100000000     0          
C454     C      0.761700000000     0.523400000000     0.548600000000     0          
O455     O      0.760710000000     0.521410000000     0.822200000000     0          
C456     C      0.761250000000     0.522500000000     0.734100000000     0          
C457     C      0.761700000000     0.238300000000     0.548600000000     0          
O458     O      0.760710000000     0.239290000000     0.822200000000     0          
C459     C      0.761250000000     0.238750000000     0.734100000000     0          
C460     C      0.476600000000     0.238300000000     0.548600000000     0          
O461     O      0.478590000000     0.239290000000     0.822200000000     0          
C462     C      0.477500000000     0.238750000000     0.734100000000     0          
H463     H      0.209950000000     0.464490000000     0.847100000000     0          
H464     H      0.209950000000     0.746180000000     0.847140000000     0          
H465     H      0.268940000000     0.775660000000     0.154780000000     0          
H466     H      0.268940000000     0.494010000000     0.154830000000     0          
H467     H      0.731060000000     0.225070000000     0.154830000000     0          
H468     H      0.731060000000     0.506720000000     0.154780000000     0          
H469     H      0.790050000000     0.536230000000     0.847140000000     0          
H470     H      0.790050000000     0.254550000000     0.847100000000     0          


