data_JEVCAR

_audit_creation_method RASPA-1.0
_audit_creation_date 2020-11-2
_audit_author_name 'Rocio Bueno-Perez'

_cell_length_a    39.633
_cell_length_b    39.633
_cell_length_c    16.4158
_cell_angle_alpha 90
_cell_angle_beta  90
_cell_angle_gamma 120
_cell_volume      22330.9

_symmetry_cell_setting          hexagonal
_symmetry_space_group_name_Hall 'P 1'
_symmetry_space_group_name_H-M  'P 1'
_symmetry_Int_Tables_number     1

_symmetry_equiv_pos_as_xyz 'x,y,z'

loop_
_atom_site_label
_atom_site_type_symbol
_atom_site_fract_x
_atom_site_fract_y
_atom_site_fract_z
_atom_site_charge
O4       O      0.466710000000     0.058340000000     0.848200000000     0          
C1       C      0.491740000000     0.093300000000     0.864900000000     0          
C2       C      0.491790000000     0.124690000000     0.815300000000     0          
O8       O      0.517970000000     0.103720000000     0.917760000000     0          
C3       C      0.462700000000     0.115860000000     0.757600000000     0          
C4       C      0.520500000000     0.162640000000     0.825500000000     0          
H1       H      0.443100000000     0.090200000000     0.750000000000     0          
C5       C      0.463100000000     0.145100000000     0.712100000000     0          
C6       C      0.520800000000     0.192140000000     0.778600000000     0          
H2       H      0.540000000000     0.168800000000     0.863900000000     0          
H3       H      0.443300000000     0.139000000000     0.674400000000     0          
C7       C      0.492300000000     0.183580000000     0.721200000000     0          
H4       H      0.540400000000     0.217800000000     0.786200000000     0          
C8       C      0.493500000000     0.216180000000     0.672500000000     0          
C10      C      0.493500000000     0.215890000000     0.587100000000     0          
C12      C      0.495400000000     0.186030000000     0.540700000000     0          
H6       H      0.496600000000     0.166200000000     0.568200000000     0          
Zr1      Zr     0.455200000000     0.000000000000     0.892370000000     0          
O5       O      0.517570000000     0.035150000000     0.890000000000     0          
O6       O      0.472220000000     0.035150000000     0.000000000000     0          
Zr2      Zr     0.536000000000     0.071990000000     0.000000000000     0          
C9       C      0.493300000000     0.246650000000     0.711600000000     0          
H5       H      0.493100000000     0.246550000000     0.768300000000     0          
C11      C      0.493100000000     0.246550000000     0.543500000000     0          
O4       O      0.408370000000     0.466710000000     0.848200000000     0          
C1       C      0.398440000000     0.491740000000     0.864900000000     0          
C2       C      0.367100000000     0.491790000000     0.815300000000     0          
O8       O      0.414250000000     0.517970000000     0.917760000000     0          
C3       C      0.346840000000     0.462700000000     0.757600000000     0          
C4       C      0.357860000000     0.520500000000     0.825500000000     0          
H1       H      0.352900000000     0.443100000000     0.750000000000     0          
C5       C      0.318000000000     0.463100000000     0.712100000000     0          
C6       C      0.328660000000     0.520800000000     0.778600000000     0          
H2       H      0.371200000000     0.540000000000     0.863900000000     0          
H3       H      0.304300000000     0.443300000000     0.674400000000     0          
C7       C      0.308720000000     0.492300000000     0.721200000000     0          
H4       H      0.322600000000     0.540400000000     0.786200000000     0          
C8       C      0.277320000000     0.493500000000     0.672500000000     0          
C10      C      0.277610000000     0.493500000000     0.587100000000     0          
C12      C      0.309370000000     0.495400000000     0.540700000000     0          
H6       H      0.330400000000     0.496600000000     0.568200000000     0          
Zr1      Zr     0.455200000000     0.455200000000     0.892370000000     0          
O5       O      0.482420000000     0.517570000000     0.890000000000     0          
O6       O      0.437070000000     0.472220000000     0.000000000000     0          
Zr2      Zr     0.464010000000     0.536000000000     0.000000000000     0          
C9       C      0.246650000000     0.493300000000     0.711600000000     0          
H5       H      0.246550000000     0.493100000000     0.768300000000     0          
C11      C      0.246550000000     0.493100000000     0.543500000000     0          
O4       O      0.941660000000     0.408370000000     0.848200000000     0          
C1       C      0.906700000000     0.398440000000     0.864900000000     0          
C2       C      0.875310000000     0.367100000000     0.815300000000     0          
O8       O      0.896280000000     0.414250000000     0.917760000000     0          
C3       C      0.884140000000     0.346840000000     0.757600000000     0          
C4       C      0.837360000000     0.357860000000     0.825500000000     0          
H1       H      0.909800000000     0.352900000000     0.750000000000     0          
C5       C      0.854900000000     0.318000000000     0.712100000000     0          
C6       C      0.807860000000     0.328660000000     0.778600000000     0          
H2       H      0.831200000000     0.371200000000     0.863900000000     0          
H3       H      0.861000000000     0.304300000000     0.674400000000     0          
C7       C      0.816420000000     0.308720000000     0.721200000000     0          
H4       H      0.782200000000     0.322600000000     0.786200000000     0          
C8       C      0.783820000000     0.277320000000     0.672500000000     0          
C10      C      0.784110000000     0.277610000000     0.587100000000     0          
C12      C      0.813970000000     0.309370000000     0.540700000000     0          
H6       H      0.833800000000     0.330400000000     0.568200000000     0          
Zr1      Zr     0.000000000000     0.455200000000     0.892370000000     0          
O5       O      0.964850000000     0.482420000000     0.890000000000     0          
O6       O      0.964850000000     0.437070000000     0.000000000000     0          
Zr2      Zr     0.928010000000     0.464010000000     0.000000000000     0          
C9       C      0.753350000000     0.246650000000     0.711600000000     0          
H5       H      0.753450000000     0.246550000000     0.768300000000     0          
C11      C      0.753450000000     0.246550000000     0.543500000000     0          
O4       O      0.533290000000     0.941660000000     0.848200000000     0          
C1       C      0.508260000000     0.906700000000     0.864900000000     0          
C2       C      0.508210000000     0.875310000000     0.815300000000     0          
O8       O      0.482030000000     0.896280000000     0.917760000000     0          
C3       C      0.537300000000     0.884140000000     0.757600000000     0          
C4       C      0.479500000000     0.837360000000     0.825500000000     0          
H1       H      0.556900000000     0.909800000000     0.750000000000     0          
C5       C      0.536900000000     0.854900000000     0.712100000000     0          
C6       C      0.479200000000     0.807860000000     0.778600000000     0          
H2       H      0.460000000000     0.831200000000     0.863900000000     0          
H3       H      0.556700000000     0.861000000000     0.674400000000     0          
C7       C      0.507700000000     0.816420000000     0.721200000000     0          
H4       H      0.459600000000     0.782200000000     0.786200000000     0          
C8       C      0.506500000000     0.783820000000     0.672500000000     0          
C10      C      0.506500000000     0.784110000000     0.587100000000     0          
C12      C      0.504600000000     0.813970000000     0.540700000000     0          
H6       H      0.503400000000     0.833800000000     0.568200000000     0          
Zr1      Zr     0.544800000000     0.000000000000     0.892370000000     0          
O5       O      0.482430000000     0.964850000000     0.890000000000     0          
O6       O      0.527780000000     0.964850000000     0.000000000000     0          
Zr2      Zr     0.464000000000     0.928010000000     0.000000000000     0          
C9       C      0.506700000000     0.753350000000     0.711600000000     0          
H5       H      0.506900000000     0.753450000000     0.768300000000     0          
C11      C      0.506900000000     0.753450000000     0.543500000000     0          
O4       O      0.591630000000     0.533290000000     0.848200000000     0          
C1       C      0.601560000000     0.508260000000     0.864900000000     0          
C2       C      0.632900000000     0.508210000000     0.815300000000     0          
O8       O      0.585750000000     0.482030000000     0.917760000000     0          
C3       C      0.653160000000     0.537300000000     0.757600000000     0          
C4       C      0.642140000000     0.479500000000     0.825500000000     0          
H1       H      0.647100000000     0.556900000000     0.750000000000     0          
C5       C      0.682000000000     0.536900000000     0.712100000000     0          
C6       C      0.671340000000     0.479200000000     0.778600000000     0          
H2       H      0.628800000000     0.460000000000     0.863900000000     0          
H3       H      0.695700000000     0.556700000000     0.674400000000     0          
C7       C      0.691280000000     0.507700000000     0.721200000000     0          
H4       H      0.677400000000     0.459600000000     0.786200000000     0          
C8       C      0.722680000000     0.506500000000     0.672500000000     0          
C10      C      0.722390000000     0.506500000000     0.587100000000     0          
C12      C      0.690630000000     0.504600000000     0.540700000000     0          
H6       H      0.669600000000     0.503400000000     0.568200000000     0          
Zr1      Zr     0.544800000000     0.544800000000     0.892370000000     0          
O5       O      0.517580000000     0.482430000000     0.890000000000     0          
O6       O      0.562930000000     0.527780000000     0.000000000000     0          
Zr2      Zr     0.535990000000     0.464000000000     0.000000000000     0          
C9       C      0.753350000000     0.506700000000     0.711600000000     0          
H5       H      0.753450000000     0.506900000000     0.768300000000     0          
C11      C      0.753450000000     0.506900000000     0.543500000000     0          
O4       O      0.058340000000     0.591630000000     0.848200000000     0          
C1       C      0.093300000000     0.601560000000     0.864900000000     0          
C2       C      0.124690000000     0.632900000000     0.815300000000     0          
O8       O      0.103720000000     0.585750000000     0.917760000000     0          
C3       C      0.115860000000     0.653160000000     0.757600000000     0          
C4       C      0.162640000000     0.642140000000     0.825500000000     0          
H1       H      0.090200000000     0.647100000000     0.750000000000     0          
C5       C      0.145100000000     0.682000000000     0.712100000000     0          
C6       C      0.192140000000     0.671340000000     0.778600000000     0          
H2       H      0.168800000000     0.628800000000     0.863900000000     0          
H3       H      0.139000000000     0.695700000000     0.674400000000     0          
C7       C      0.183580000000     0.691280000000     0.721200000000     0          
H4       H      0.217800000000     0.677400000000     0.786200000000     0          
C8       C      0.216180000000     0.722680000000     0.672500000000     0          
C10      C      0.215890000000     0.722390000000     0.587100000000     0          
C12      C      0.186030000000     0.690630000000     0.540700000000     0          
H6       H      0.166200000000     0.669600000000     0.568200000000     0          
Zr1      Zr     0.000000000000     0.544800000000     0.892370000000     0          
O5       O      0.035150000000     0.517580000000     0.890000000000     0          
O6       O      0.035150000000     0.562930000000     0.000000000000     0          
Zr2      Zr     0.071990000000     0.535990000000     0.000000000000     0          
C9       C      0.246650000000     0.753350000000     0.711600000000     0          
H5       H      0.246550000000     0.753450000000     0.768300000000     0          
C11      C      0.246550000000     0.753450000000     0.543500000000     0          
O4       O      0.941660000000     0.533290000000     0.151800000000     0          
C1       C      0.906700000000     0.508260000000     0.135100000000     0          
C2       C      0.875310000000     0.508210000000     0.184700000000     0          
O8       O      0.896280000000     0.482030000000     0.082240000000     0          
C3       C      0.884140000000     0.537300000000     0.242400000000     0          
C4       C      0.837360000000     0.479500000000     0.174500000000     0          
H1       H      0.909800000000     0.556900000000     0.250000000000     0          
C5       C      0.854900000000     0.536900000000     0.287900000000     0          
C6       C      0.807860000000     0.479200000000     0.221400000000     0          
H2       H      0.831200000000     0.460000000000     0.136100000000     0          
H3       H      0.861000000000     0.556700000000     0.325600000000     0          
C7       C      0.816420000000     0.507700000000     0.278800000000     0          
H4       H      0.782200000000     0.459600000000     0.213800000000     0          
C8       C      0.783820000000     0.506500000000     0.327500000000     0          
C10      C      0.784110000000     0.506500000000     0.412900000000     0          
C12      C      0.813970000000     0.504600000000     0.459300000000     0          
H6       H      0.833800000000     0.503400000000     0.431800000000     0          
Zr1      Zr     0.000000000000     0.544800000000     0.107630000000     0          
O5       O      0.964850000000     0.482430000000     0.110000000000     0          
O6       O      0.964850000000     0.527780000000     0.000000000000     0          
C9       C      0.753350000000     0.506700000000     0.288400000000     0          
H5       H      0.753450000000     0.506900000000     0.231700000000     0          
C11      C      0.753450000000     0.506900000000     0.456500000000     0          
O4       O      0.408370000000     0.941660000000     0.151800000000     0          
C1       C      0.398440000000     0.906700000000     0.135100000000     0          
C2       C      0.367100000000     0.875310000000     0.184700000000     0          
O8       O      0.414250000000     0.896280000000     0.082240000000     0          
C3       C      0.346840000000     0.884140000000     0.242400000000     0          
C4       C      0.357860000000     0.837360000000     0.174500000000     0          
H1       H      0.352900000000     0.909800000000     0.250000000000     0          
C5       C      0.318000000000     0.854900000000     0.287900000000     0          
C6       C      0.328660000000     0.807860000000     0.221400000000     0          
H2       H      0.371200000000     0.831200000000     0.136100000000     0          
H3       H      0.304300000000     0.861000000000     0.325600000000     0          
C7       C      0.308720000000     0.816420000000     0.278800000000     0          
H4       H      0.322600000000     0.782200000000     0.213800000000     0          
C8       C      0.277320000000     0.783820000000     0.327500000000     0          
C10      C      0.277610000000     0.784110000000     0.412900000000     0          
C12      C      0.309370000000     0.813970000000     0.459300000000     0          
H6       H      0.330400000000     0.833800000000     0.431800000000     0          
Zr1      Zr     0.455200000000     0.000000000000     0.107630000000     0          
O5       O      0.482420000000     0.964850000000     0.110000000000     0          
O6       O      0.437070000000     0.964850000000     0.000000000000     0          
C9       C      0.246650000000     0.753350000000     0.288400000000     0          
H5       H      0.246550000000     0.753450000000     0.231700000000     0          
C11      C      0.246550000000     0.753450000000     0.456500000000     0          
O4       O      0.466710000000     0.408370000000     0.151800000000     0          
C1       C      0.491740000000     0.398440000000     0.135100000000     0          
C2       C      0.491790000000     0.367100000000     0.184700000000     0          
O8       O      0.517970000000     0.414250000000     0.082240000000     0          
C3       C      0.462700000000     0.346840000000     0.242400000000     0          
C4       C      0.520500000000     0.357860000000     0.174500000000     0          
H1       H      0.443100000000     0.352900000000     0.250000000000     0          
C5       C      0.463100000000     0.318000000000     0.287900000000     0          
C6       C      0.520800000000     0.328660000000     0.221400000000     0          
H2       H      0.540000000000     0.371200000000     0.136100000000     0          
H3       H      0.443300000000     0.304300000000     0.325600000000     0          
C7       C      0.492300000000     0.308720000000     0.278800000000     0          
H4       H      0.540400000000     0.322600000000     0.213800000000     0          
C8       C      0.493500000000     0.277320000000     0.327500000000     0          
C10      C      0.493500000000     0.277610000000     0.412900000000     0          
C12      C      0.495400000000     0.309370000000     0.459300000000     0          
H6       H      0.496600000000     0.330400000000     0.431800000000     0          
Zr1      Zr     0.455200000000     0.455200000000     0.107630000000     0          
O5       O      0.517570000000     0.482420000000     0.110000000000     0          
O6       O      0.472220000000     0.437070000000     0.000000000000     0          
C9       C      0.493300000000     0.246650000000     0.288400000000     0          
H5       H      0.493100000000     0.246550000000     0.231700000000     0          
C11      C      0.493100000000     0.246550000000     0.456500000000     0          
O4       O      0.058340000000     0.466710000000     0.151800000000     0          
C1       C      0.093300000000     0.491740000000     0.135100000000     0          
C2       C      0.124690000000     0.491790000000     0.184700000000     0          
O8       O      0.103720000000     0.517970000000     0.082240000000     0          
C3       C      0.115860000000     0.462700000000     0.242400000000     0          
C4       C      0.162640000000     0.520500000000     0.174500000000     0          
H1       H      0.090200000000     0.443100000000     0.250000000000     0          
C5       C      0.145100000000     0.463100000000     0.287900000000     0          
C6       C      0.192140000000     0.520800000000     0.221400000000     0          
H2       H      0.168800000000     0.540000000000     0.136100000000     0          
H3       H      0.139000000000     0.443300000000     0.325600000000     0          
C7       C      0.183580000000     0.492300000000     0.278800000000     0          
H4       H      0.217800000000     0.540400000000     0.213800000000     0          
C8       C      0.216180000000     0.493500000000     0.327500000000     0          
C10      C      0.215890000000     0.493500000000     0.412900000000     0          
C12      C      0.186030000000     0.495400000000     0.459300000000     0          
H6       H      0.166200000000     0.496600000000     0.431800000000     0          
Zr1      Zr     0.000000000000     0.455200000000     0.107630000000     0          
O5       O      0.035150000000     0.517570000000     0.110000000000     0          
O6       O      0.035150000000     0.472220000000     0.000000000000     0          
C9       C      0.246650000000     0.493300000000     0.288400000000     0          
H5       H      0.246550000000     0.493100000000     0.231700000000     0          
C11      C      0.246550000000     0.493100000000     0.456500000000     0          
O4       O      0.591630000000     0.058340000000     0.151800000000     0          
C1       C      0.601560000000     0.093300000000     0.135100000000     0          
C2       C      0.632900000000     0.124690000000     0.184700000000     0          
O8       O      0.585750000000     0.103720000000     0.082240000000     0          
C3       C      0.653160000000     0.115860000000     0.242400000000     0          
C4       C      0.642140000000     0.162640000000     0.174500000000     0          
H1       H      0.647100000000     0.090200000000     0.250000000000     0          
C5       C      0.682000000000     0.145100000000     0.287900000000     0          
C6       C      0.671340000000     0.192140000000     0.221400000000     0          
H2       H      0.628800000000     0.168800000000     0.136100000000     0          
H3       H      0.695700000000     0.139000000000     0.325600000000     0          
C7       C      0.691280000000     0.183580000000     0.278800000000     0          
H4       H      0.677400000000     0.217800000000     0.213800000000     0          
C8       C      0.722680000000     0.216180000000     0.327500000000     0          
C10      C      0.722390000000     0.215890000000     0.412900000000     0          
C12      C      0.690630000000     0.186030000000     0.459300000000     0          
H6       H      0.669600000000     0.166200000000     0.431800000000     0          
Zr1      Zr     0.544800000000     0.000000000000     0.107630000000     0          
O5       O      0.517580000000     0.035150000000     0.110000000000     0          
O6       O      0.562930000000     0.035150000000     0.000000000000     0          
C9       C      0.753350000000     0.246650000000     0.288400000000     0          
H5       H      0.753450000000     0.246550000000     0.231700000000     0          
C11      C      0.753450000000     0.246550000000     0.456500000000     0          
O4       O      0.533290000000     0.591630000000     0.151800000000     0          
C1       C      0.508260000000     0.601560000000     0.135100000000     0          
C2       C      0.508210000000     0.632900000000     0.184700000000     0          
O8       O      0.482030000000     0.585750000000     0.082240000000     0          
C3       C      0.537300000000     0.653160000000     0.242400000000     0          
C4       C      0.479500000000     0.642140000000     0.174500000000     0          
H1       H      0.556900000000     0.647100000000     0.250000000000     0          
C5       C      0.536900000000     0.682000000000     0.287900000000     0          
C6       C      0.479200000000     0.671340000000     0.221400000000     0          
H2       H      0.460000000000     0.628800000000     0.136100000000     0          
H3       H      0.556700000000     0.695700000000     0.325600000000     0          
C7       C      0.507700000000     0.691280000000     0.278800000000     0          
H4       H      0.459600000000     0.677400000000     0.213800000000     0          
C8       C      0.506500000000     0.722680000000     0.327500000000     0          
C10      C      0.506500000000     0.722390000000     0.412900000000     0          
C12      C      0.504600000000     0.690630000000     0.459300000000     0          
H6       H      0.503400000000     0.669600000000     0.431800000000     0          
Zr1      Zr     0.544800000000     0.544800000000     0.107630000000     0          
O5       O      0.482430000000     0.517580000000     0.110000000000     0          
O6       O      0.527780000000     0.562930000000     0.000000000000     0          
C9       C      0.506700000000     0.753350000000     0.288400000000     0          
H5       H      0.506900000000     0.753450000000     0.231700000000     0          
C11      C      0.506900000000     0.753450000000     0.456500000000     0          
O4       O      0.533290000000     0.941660000000     0.151800000000     0          
C1       C      0.508260000000     0.906700000000     0.135100000000     0          
C2       C      0.508210000000     0.875310000000     0.184700000000     0          
O8       O      0.482030000000     0.896280000000     0.082240000000     0          
C3       C      0.537300000000     0.884140000000     0.242400000000     0          
C4       C      0.479500000000     0.837360000000     0.174500000000     0          
H1       H      0.556900000000     0.909800000000     0.250000000000     0          
C5       C      0.536900000000     0.854900000000     0.287900000000     0          
C6       C      0.479200000000     0.807860000000     0.221400000000     0          
H2       H      0.460000000000     0.831200000000     0.136100000000     0          
H3       H      0.556700000000     0.861000000000     0.325600000000     0          
C7       C      0.507700000000     0.816420000000     0.278800000000     0          
H4       H      0.459600000000     0.782200000000     0.213800000000     0          
C8       C      0.506500000000     0.783820000000     0.327500000000     0          
C10      C      0.506500000000     0.784110000000     0.412900000000     0          
C12      C      0.504600000000     0.813970000000     0.459300000000     0          
H6       H      0.503400000000     0.833800000000     0.431800000000     0          
O4       O      0.591630000000     0.533290000000     0.151800000000     0          
C1       C      0.601560000000     0.508260000000     0.135100000000     0          
C2       C      0.632900000000     0.508210000000     0.184700000000     0          
O8       O      0.585750000000     0.482030000000     0.082240000000     0          
C3       C      0.653160000000     0.537300000000     0.242400000000     0          
C4       C      0.642140000000     0.479500000000     0.174500000000     0          
H1       H      0.647100000000     0.556900000000     0.250000000000     0          
C5       C      0.682000000000     0.536900000000     0.287900000000     0          
C6       C      0.671340000000     0.479200000000     0.221400000000     0          
H2       H      0.628800000000     0.460000000000     0.136100000000     0          
H3       H      0.695700000000     0.556700000000     0.325600000000     0          
C7       C      0.691280000000     0.507700000000     0.278800000000     0          
H4       H      0.677400000000     0.459600000000     0.213800000000     0          
C8       C      0.722680000000     0.506500000000     0.327500000000     0          
C10      C      0.722390000000     0.506500000000     0.412900000000     0          
C12      C      0.690630000000     0.504600000000     0.459300000000     0          
H6       H      0.669600000000     0.503400000000     0.431800000000     0          
O4       O      0.058340000000     0.591630000000     0.151800000000     0          
C1       C      0.093300000000     0.601560000000     0.135100000000     0          
C2       C      0.124690000000     0.632900000000     0.184700000000     0          
O8       O      0.103720000000     0.585750000000     0.082240000000     0          
C3       C      0.115860000000     0.653160000000     0.242400000000     0          
C4       C      0.162640000000     0.642140000000     0.174500000000     0          
H1       H      0.090200000000     0.647100000000     0.250000000000     0          
C5       C      0.145100000000     0.682000000000     0.287900000000     0          
C6       C      0.192140000000     0.671340000000     0.221400000000     0          
H2       H      0.168800000000     0.628800000000     0.136100000000     0          
H3       H      0.139000000000     0.695700000000     0.325600000000     0          
C7       C      0.183580000000     0.691280000000     0.278800000000     0          
H4       H      0.217800000000     0.677400000000     0.213800000000     0          
C8       C      0.216180000000     0.722680000000     0.327500000000     0          
C10      C      0.215890000000     0.722390000000     0.412900000000     0          
C12      C      0.186030000000     0.690630000000     0.459300000000     0          
H6       H      0.166200000000     0.669600000000     0.431800000000     0          
O4       O      0.466710000000     0.058340000000     0.151800000000     0          
C1       C      0.491740000000     0.093300000000     0.135100000000     0          
C2       C      0.491790000000     0.124690000000     0.184700000000     0          
O8       O      0.517970000000     0.103720000000     0.082240000000     0          
C3       C      0.462700000000     0.115860000000     0.242400000000     0          
C4       C      0.520500000000     0.162640000000     0.174500000000     0          
H1       H      0.443100000000     0.090200000000     0.250000000000     0          
C5       C      0.463100000000     0.145100000000     0.287900000000     0          
C6       C      0.520800000000     0.192140000000     0.221400000000     0          
H2       H      0.540000000000     0.168800000000     0.136100000000     0          
H3       H      0.443300000000     0.139000000000     0.325600000000     0          
C7       C      0.492300000000     0.183580000000     0.278800000000     0          
H4       H      0.540400000000     0.217800000000     0.213800000000     0          
C8       C      0.493500000000     0.216180000000     0.327500000000     0          
C10      C      0.493500000000     0.215890000000     0.412900000000     0          
C12      C      0.495400000000     0.186030000000     0.459300000000     0          
H6       H      0.496600000000     0.166200000000     0.431800000000     0          
O4       O      0.408370000000     0.466710000000     0.151800000000     0          
C1       C      0.398440000000     0.491740000000     0.135100000000     0          
C2       C      0.367100000000     0.491790000000     0.184700000000     0          
O8       O      0.414250000000     0.517970000000     0.082240000000     0          
C3       C      0.346840000000     0.462700000000     0.242400000000     0          
C4       C      0.357860000000     0.520500000000     0.174500000000     0          
H1       H      0.352900000000     0.443100000000     0.250000000000     0          
C5       C      0.318000000000     0.463100000000     0.287900000000     0          
C6       C      0.328660000000     0.520800000000     0.221400000000     0          
H2       H      0.371200000000     0.540000000000     0.136100000000     0          
H3       H      0.304300000000     0.443300000000     0.325600000000     0          
C7       C      0.308720000000     0.492300000000     0.278800000000     0          
H4       H      0.322600000000     0.540400000000     0.213800000000     0          
C8       C      0.277320000000     0.493500000000     0.327500000000     0          
C10      C      0.277610000000     0.493500000000     0.412900000000     0          
C12      C      0.309370000000     0.495400000000     0.459300000000     0          
H6       H      0.330400000000     0.496600000000     0.431800000000     0          
O4       O      0.941660000000     0.408370000000     0.151800000000     0          
C1       C      0.906700000000     0.398440000000     0.135100000000     0          
C2       C      0.875310000000     0.367100000000     0.184700000000     0          
O8       O      0.896280000000     0.414250000000     0.082240000000     0          
C3       C      0.884140000000     0.346840000000     0.242400000000     0          
C4       C      0.837360000000     0.357860000000     0.174500000000     0          
H1       H      0.909800000000     0.352900000000     0.250000000000     0          
C5       C      0.854900000000     0.318000000000     0.287900000000     0          
C6       C      0.807860000000     0.328660000000     0.221400000000     0          
H2       H      0.831200000000     0.371200000000     0.136100000000     0          
H3       H      0.861000000000     0.304300000000     0.325600000000     0          
C7       C      0.816420000000     0.308720000000     0.278800000000     0          
H4       H      0.782200000000     0.322600000000     0.213800000000     0          
C8       C      0.783820000000     0.277320000000     0.327500000000     0          
C10      C      0.784110000000     0.277610000000     0.412900000000     0          
C12      C      0.813970000000     0.309370000000     0.459300000000     0          
H6       H      0.833800000000     0.330400000000     0.431800000000     0          
O4       O      0.058340000000     0.466710000000     0.848200000000     0          
C1       C      0.093300000000     0.491740000000     0.864900000000     0          
C2       C      0.124690000000     0.491790000000     0.815300000000     0          
O8       O      0.103720000000     0.517970000000     0.917760000000     0          
C3       C      0.115860000000     0.462700000000     0.757600000000     0          
C4       C      0.162640000000     0.520500000000     0.825500000000     0          
H1       H      0.090200000000     0.443100000000     0.750000000000     0          
C5       C      0.145100000000     0.463100000000     0.712100000000     0          
C6       C      0.192140000000     0.520800000000     0.778600000000     0          
H2       H      0.168800000000     0.540000000000     0.863900000000     0          
H3       H      0.139000000000     0.443300000000     0.674400000000     0          
C7       C      0.183580000000     0.492300000000     0.721200000000     0          
H4       H      0.217800000000     0.540400000000     0.786200000000     0          
C8       C      0.216180000000     0.493500000000     0.672500000000     0          
C10      C      0.215890000000     0.493500000000     0.587100000000     0          
C12      C      0.186030000000     0.495400000000     0.540700000000     0          
H6       H      0.166200000000     0.496600000000     0.568200000000     0          
O4       O      0.591630000000     0.058340000000     0.848200000000     0          
C1       C      0.601560000000     0.093300000000     0.864900000000     0          
C2       C      0.632900000000     0.124690000000     0.815300000000     0          
O8       O      0.585750000000     0.103720000000     0.917760000000     0          
C3       C      0.653160000000     0.115860000000     0.757600000000     0          
C4       C      0.642140000000     0.162640000000     0.825500000000     0          
H1       H      0.647100000000     0.090200000000     0.750000000000     0          
C5       C      0.682000000000     0.145100000000     0.712100000000     0          
C6       C      0.671340000000     0.192140000000     0.778600000000     0          
H2       H      0.628800000000     0.168800000000     0.863900000000     0          
H3       H      0.695700000000     0.139000000000     0.674400000000     0          
C7       C      0.691280000000     0.183580000000     0.721200000000     0          
H4       H      0.677400000000     0.217800000000     0.786200000000     0          
C8       C      0.722680000000     0.216180000000     0.672500000000     0          
C10      C      0.722390000000     0.215890000000     0.587100000000     0          
C12      C      0.690630000000     0.186030000000     0.540700000000     0          
H6       H      0.669600000000     0.166200000000     0.568200000000     0          
O4       O      0.533290000000     0.591630000000     0.848200000000     0          
C1       C      0.508260000000     0.601560000000     0.864900000000     0          
C2       C      0.508210000000     0.632900000000     0.815300000000     0          
O8       O      0.482030000000     0.585750000000     0.917760000000     0          
C3       C      0.537300000000     0.653160000000     0.757600000000     0          
C4       C      0.479500000000     0.642140000000     0.825500000000     0          
H1       H      0.556900000000     0.647100000000     0.750000000000     0          
C5       C      0.536900000000     0.682000000000     0.712100000000     0          
C6       C      0.479200000000     0.671340000000     0.778600000000     0          
H2       H      0.460000000000     0.628800000000     0.863900000000     0          
H3       H      0.556700000000     0.695700000000     0.674400000000     0          
C7       C      0.507700000000     0.691280000000     0.721200000000     0          
H4       H      0.459600000000     0.677400000000     0.786200000000     0          
C8       C      0.506500000000     0.722680000000     0.672500000000     0          
C10      C      0.506500000000     0.722390000000     0.587100000000     0          
C12      C      0.504600000000     0.690630000000     0.540700000000     0          
H6       H      0.503400000000     0.669600000000     0.568200000000     0          
O4       O      0.941660000000     0.533290000000     0.848200000000     0          
C1       C      0.906700000000     0.508260000000     0.864900000000     0          
C2       C      0.875310000000     0.508210000000     0.815300000000     0          
O8       O      0.896280000000     0.482030000000     0.917760000000     0          
C3       C      0.884140000000     0.537300000000     0.757600000000     0          
C4       C      0.837360000000     0.479500000000     0.825500000000     0          
H1       H      0.909800000000     0.556900000000     0.750000000000     0          
C5       C      0.854900000000     0.536900000000     0.712100000000     0          
C6       C      0.807860000000     0.479200000000     0.778600000000     0          
H2       H      0.831200000000     0.460000000000     0.863900000000     0          
H3       H      0.861000000000     0.556700000000     0.674400000000     0          
C7       C      0.816420000000     0.507700000000     0.721200000000     0          
H4       H      0.782200000000     0.459600000000     0.786200000000     0          
C8       C      0.783820000000     0.506500000000     0.672500000000     0          
C10      C      0.784110000000     0.506500000000     0.587100000000     0          
C12      C      0.813970000000     0.504600000000     0.540700000000     0          
H6       H      0.833800000000     0.503400000000     0.568200000000     0          
O4       O      0.408370000000     0.941660000000     0.848200000000     0          
C1       C      0.398440000000     0.906700000000     0.864900000000     0          
C2       C      0.367100000000     0.875310000000     0.815300000000     0          
O8       O      0.414250000000     0.896280000000     0.917760000000     0          
C3       C      0.346840000000     0.884140000000     0.757600000000     0          
C4       C      0.357860000000     0.837360000000     0.825500000000     0          
H1       H      0.352900000000     0.909800000000     0.750000000000     0          
C5       C      0.318000000000     0.854900000000     0.712100000000     0          
C6       C      0.328660000000     0.807860000000     0.778600000000     0          
H2       H      0.371200000000     0.831200000000     0.863900000000     0          
H3       H      0.304300000000     0.861000000000     0.674400000000     0          
C7       C      0.308720000000     0.816420000000     0.721200000000     0          
H4       H      0.322600000000     0.782200000000     0.786200000000     0          
C8       C      0.277320000000     0.783820000000     0.672500000000     0          
C10      C      0.277610000000     0.784110000000     0.587100000000     0          
C12      C      0.309370000000     0.813970000000     0.540700000000     0          
H6       H      0.330400000000     0.833800000000     0.568200000000     0          
O4       O      0.466710000000     0.408370000000     0.848200000000     0          
C1       C      0.491740000000     0.398440000000     0.864900000000     0          
C2       C      0.491790000000     0.367100000000     0.815300000000     0          
O8       O      0.517970000000     0.414250000000     0.917760000000     0          
C3       C      0.462700000000     0.346840000000     0.757600000000     0          
C4       C      0.520500000000     0.357860000000     0.825500000000     0          
H1       H      0.443100000000     0.352900000000     0.750000000000     0          
C5       C      0.463100000000     0.318000000000     0.712100000000     0          
C6       C      0.520800000000     0.328660000000     0.778600000000     0          
H2       H      0.540000000000     0.371200000000     0.863900000000     0          
H3       H      0.443300000000     0.304300000000     0.674400000000     0          
C7       C      0.492300000000     0.308720000000     0.721200000000     0          
H4       H      0.540400000000     0.322600000000     0.786200000000     0          
C8       C      0.493500000000     0.277320000000     0.672500000000     0          
C10      C      0.493500000000     0.277610000000     0.587100000000     0          
C12      C      0.495400000000     0.309370000000     0.540700000000     0          
H6       H      0.496600000000     0.330400000000     0.568200000000     0          


