data_JIXKAF

_audit_creation_method RASPA-1.0
_audit_creation_date 2020-11-2
_audit_author_name 'Rocio Bueno-Perez'

_cell_length_a    22.7496
_cell_length_b    22.7496
_cell_length_c    22.7496
_cell_angle_alpha 90
_cell_angle_beta  90
_cell_angle_gamma 90
_cell_volume      11773.9

_symmetry_cell_setting          triclinic
_symmetry_space_group_name_Hall 'P 1'
_symmetry_space_group_name_H-M  'P 1'
_symmetry_Int_Tables_number     1

_symmetry_equiv_pos_as_xyz 'x,y,z'

loop_
_atom_site_label
_atom_site_type_symbol
_atom_site_fract_x
_atom_site_fract_y
_atom_site_fract_z
_atom_site_charge
I1       I      0.809600000000     0.809600000000     0.809600000000     0          
Cu2      Cu     0.748700000000     0.748700000000     0.748700000000     0          
C3       C      0.669400000000     0.669400000000     0.669400000000     0          
I4       I      0.190400000000     0.190400000000     0.809600000000     0          
Cu5      Cu     0.251300000000     0.251300000000     0.748700000000     0          
C6       C      0.330600000000     0.330600000000     0.669400000000     0          
I7       I      0.190400000000     0.809600000000     0.190400000000     0          
Cu8      Cu     0.251300000000     0.748700000000     0.251300000000     0          
C9       C      0.330600000000     0.669400000000     0.330600000000     0          
I10      I      0.809600000000     0.190400000000     0.190400000000     0          
Cu11     Cu     0.748700000000     0.251300000000     0.251300000000     0          
C12      C      0.669400000000     0.330600000000     0.330600000000     0          
I13      I      0.809600000000     0.809600000000     0.190400000000     0          
Cu14     Cu     0.748700000000     0.748700000000     0.251300000000     0          
C15      C      0.669400000000     0.669400000000     0.330600000000     0          
I16      I      0.190400000000     0.190400000000     0.190400000000     0          
Cu17     Cu     0.251300000000     0.251300000000     0.251300000000     0          
C18      C      0.330600000000     0.330600000000     0.330600000000     0          
I19      I      0.809600000000     0.190400000000     0.809600000000     0          
Cu20     Cu     0.748700000000     0.251300000000     0.748700000000     0          
C21      C      0.669400000000     0.330600000000     0.669400000000     0          
I22      I      0.190400000000     0.809600000000     0.809600000000     0          
Cu23     Cu     0.251300000000     0.748700000000     0.748700000000     0          
C24      C      0.330600000000     0.669400000000     0.669400000000     0          
N25      N      0.688600000000     0.773500000000     0.688600000000     0          
C26      C      0.669200000000     0.828400000000     0.669200000000     0          
N27      N      0.657600000000     0.730600000000     0.657600000000     0          
C28      C      0.626400000000     0.819400000000     0.626400000000     0          
C29      C      0.693300000000     0.883800000000     0.693300000000     0          
C30      C      0.619200000000     0.759000000000     0.619200000000     0          
C31      C      0.593000000000     0.867600000000     0.593000000000     0          
C32      C      0.579600000000     0.726100000000     0.579600000000     0          
O33      O      0.605600000000     0.922900000000     0.605600000000     0          
O34      O      0.553600000000     0.850800000000     0.553600000000     0          
N35      N      0.311400000000     0.226500000000     0.688600000000     0          
C36      C      0.330800000000     0.171600000000     0.669200000000     0          
N37      N      0.342400000000     0.269400000000     0.657600000000     0          
C38      C      0.373600000000     0.180600000000     0.626400000000     0          
C39      C      0.306700000000     0.116200000000     0.693300000000     0          
C40      C      0.380800000000     0.241000000000     0.619200000000     0          
C41      C      0.407000000000     0.132400000000     0.593000000000     0          
C42      C      0.420400000000     0.273900000000     0.579600000000     0          
O43      O      0.394400000000     0.077100000000     0.605600000000     0          
O44      O      0.446400000000     0.149200000000     0.553600000000     0          
N45      N      0.311400000000     0.773500000000     0.311400000000     0          
C46      C      0.330800000000     0.828400000000     0.330800000000     0          
N47      N      0.342400000000     0.730600000000     0.342400000000     0          
C48      C      0.373600000000     0.819400000000     0.373600000000     0          
C49      C      0.306700000000     0.883800000000     0.306700000000     0          
C50      C      0.380800000000     0.759000000000     0.380800000000     0          
C51      C      0.407000000000     0.867600000000     0.407000000000     0          
C52      C      0.420400000000     0.726100000000     0.420400000000     0          
O53      O      0.394400000000     0.922900000000     0.394400000000     0          
O54      O      0.446400000000     0.850800000000     0.446400000000     0          
N55      N      0.688600000000     0.226500000000     0.311400000000     0          
C56      C      0.669200000000     0.171600000000     0.330800000000     0          
N57      N      0.657600000000     0.269400000000     0.342400000000     0          
C58      C      0.626400000000     0.180600000000     0.373600000000     0          
C59      C      0.693300000000     0.116200000000     0.306700000000     0          
C60      C      0.619200000000     0.241000000000     0.380800000000     0          
C61      C      0.593000000000     0.132400000000     0.407000000000     0          
C62      C      0.579600000000     0.273900000000     0.420400000000     0          
O63      O      0.605600000000     0.077100000000     0.394400000000     0          
O64      O      0.553600000000     0.149200000000     0.446400000000     0          
N65      N      0.688600000000     0.688600000000     0.773500000000     0          
C66      C      0.669200000000     0.669200000000     0.828400000000     0          
N67      N      0.657600000000     0.657600000000     0.730600000000     0          
C68      C      0.626400000000     0.626400000000     0.819400000000     0          
C69      C      0.693300000000     0.693300000000     0.883800000000     0          
C70      C      0.619200000000     0.619200000000     0.759000000000     0          
C71      C      0.593000000000     0.593000000000     0.867600000000     0          
C72      C      0.579600000000     0.579600000000     0.726100000000     0          
O73      O      0.605600000000     0.605600000000     0.922900000000     0          
O74      O      0.553600000000     0.553600000000     0.850800000000     0          
N75      N      0.688600000000     0.311400000000     0.226500000000     0          
C76      C      0.669200000000     0.330800000000     0.171600000000     0          
N77      N      0.657600000000     0.342400000000     0.269400000000     0          
C78      C      0.626400000000     0.373600000000     0.180600000000     0          
C79      C      0.693300000000     0.306700000000     0.116200000000     0          
C80      C      0.619200000000     0.380800000000     0.241000000000     0          
C81      C      0.593000000000     0.407000000000     0.132400000000     0          
C82      C      0.579600000000     0.420400000000     0.273900000000     0          
O83      O      0.605600000000     0.394400000000     0.077100000000     0          
O84      O      0.553600000000     0.446400000000     0.149200000000     0          
N85      N      0.311400000000     0.311400000000     0.773500000000     0          
C86      C      0.330800000000     0.330800000000     0.828400000000     0          
N87      N      0.342400000000     0.342400000000     0.730600000000     0          
C88      C      0.373600000000     0.373600000000     0.819400000000     0          
C89      C      0.306700000000     0.306700000000     0.883800000000     0          
C90      C      0.380800000000     0.380800000000     0.759000000000     0          
C91      C      0.407000000000     0.407000000000     0.867600000000     0          
C92      C      0.420400000000     0.420400000000     0.726100000000     0          
O93      O      0.394400000000     0.394400000000     0.922900000000     0          
O94      O      0.446400000000     0.446400000000     0.850800000000     0          
N95      N      0.311400000000     0.688600000000     0.226500000000     0          
C96      C      0.330800000000     0.669200000000     0.171600000000     0          
N97      N      0.342400000000     0.657600000000     0.269400000000     0          
C98      C      0.373600000000     0.626400000000     0.180600000000     0          
C99      C      0.306700000000     0.693300000000     0.116200000000     0          
C100     C      0.380800000000     0.619200000000     0.241000000000     0          
C101     C      0.407000000000     0.593000000000     0.132400000000     0          
C102     C      0.420400000000     0.579600000000     0.273900000000     0          
O103     O      0.394400000000     0.605600000000     0.077100000000     0          
O104     O      0.446400000000     0.553600000000     0.149200000000     0          
N105     N      0.773500000000     0.688600000000     0.688600000000     0          
C106     C      0.828400000000     0.669200000000     0.669200000000     0          
N107     N      0.730600000000     0.657600000000     0.657600000000     0          
C108     C      0.819400000000     0.626400000000     0.626400000000     0          
C109     C      0.883800000000     0.693300000000     0.693300000000     0          
C110     C      0.759000000000     0.619200000000     0.619200000000     0          
C111     C      0.867600000000     0.593000000000     0.593000000000     0          
C112     C      0.726100000000     0.579600000000     0.579600000000     0          
O113     O      0.922900000000     0.605600000000     0.605600000000     0          
O114     O      0.850800000000     0.553600000000     0.553600000000     0          
N115     N      0.226500000000     0.688600000000     0.311400000000     0          
C116     C      0.171600000000     0.669200000000     0.330800000000     0          
N117     N      0.269400000000     0.657600000000     0.342400000000     0          
C118     C      0.180600000000     0.626400000000     0.373600000000     0          
C119     C      0.116200000000     0.693300000000     0.306700000000     0          
C120     C      0.241000000000     0.619200000000     0.380800000000     0          
C121     C      0.132400000000     0.593000000000     0.407000000000     0          
C122     C      0.273900000000     0.579600000000     0.420400000000     0          
O123     O      0.077100000000     0.605600000000     0.394400000000     0          
O124     O      0.149200000000     0.553600000000     0.446400000000     0          
N125     N      0.773500000000     0.311400000000     0.311400000000     0          
C126     C      0.828400000000     0.330800000000     0.330800000000     0          
N127     N      0.730600000000     0.342400000000     0.342400000000     0          
C128     C      0.819400000000     0.373600000000     0.373600000000     0          
C129     C      0.883800000000     0.306700000000     0.306700000000     0          
C130     C      0.759000000000     0.380800000000     0.380800000000     0          
C131     C      0.867600000000     0.407000000000     0.407000000000     0          
C132     C      0.726100000000     0.420400000000     0.420400000000     0          
O133     O      0.922900000000     0.394400000000     0.394400000000     0          
O134     O      0.850800000000     0.446400000000     0.446400000000     0          
N135     N      0.226500000000     0.311400000000     0.688600000000     0          
C136     C      0.171600000000     0.330800000000     0.669200000000     0          
N137     N      0.269400000000     0.342400000000     0.657600000000     0          
C138     C      0.180600000000     0.373600000000     0.626400000000     0          
C139     C      0.116200000000     0.306700000000     0.693300000000     0          
C140     C      0.241000000000     0.380800000000     0.619200000000     0          
C141     C      0.132400000000     0.407000000000     0.593000000000     0          
C142     C      0.273900000000     0.420400000000     0.579600000000     0          
O143     O      0.077100000000     0.394400000000     0.605600000000     0          
O144     O      0.149200000000     0.446400000000     0.553600000000     0          
N145     N      0.773500000000     0.688600000000     0.311400000000     0          
C146     C      0.828400000000     0.669200000000     0.330800000000     0          
N147     N      0.730600000000     0.657600000000     0.342400000000     0          
C148     C      0.819400000000     0.626400000000     0.373600000000     0          
C149     C      0.883800000000     0.693300000000     0.306700000000     0          
C150     C      0.759000000000     0.619200000000     0.380800000000     0          
C151     C      0.867600000000     0.593000000000     0.407000000000     0          
C152     C      0.726100000000     0.579600000000     0.420400000000     0          
O153     O      0.922900000000     0.605600000000     0.394400000000     0          
O154     O      0.850800000000     0.553600000000     0.446400000000     0          
N155     N      0.226500000000     0.311400000000     0.311400000000     0          
C156     C      0.171600000000     0.330800000000     0.330800000000     0          
N157     N      0.269400000000     0.342400000000     0.342400000000     0          
C158     C      0.180600000000     0.373600000000     0.373600000000     0          
C159     C      0.116200000000     0.306700000000     0.306700000000     0          
C160     C      0.241000000000     0.380800000000     0.380800000000     0          
C161     C      0.132400000000     0.407000000000     0.407000000000     0          
C162     C      0.273900000000     0.420400000000     0.420400000000     0          
O163     O      0.077100000000     0.394400000000     0.394400000000     0          
O164     O      0.149200000000     0.446400000000     0.446400000000     0          
N165     N      0.773500000000     0.311400000000     0.688600000000     0          
C166     C      0.828400000000     0.330800000000     0.669200000000     0          
N167     N      0.730600000000     0.342400000000     0.657600000000     0          
C168     C      0.819400000000     0.373600000000     0.626400000000     0          
C169     C      0.883800000000     0.306700000000     0.693300000000     0          
C170     C      0.759000000000     0.380800000000     0.619200000000     0          
C171     C      0.867600000000     0.407000000000     0.593000000000     0          
C172     C      0.726100000000     0.420400000000     0.579600000000     0          
O173     O      0.922900000000     0.394400000000     0.605600000000     0          
O174     O      0.850800000000     0.446400000000     0.553600000000     0          
N175     N      0.226500000000     0.688600000000     0.688600000000     0          
C176     C      0.171600000000     0.669200000000     0.669200000000     0          
N177     N      0.269400000000     0.657600000000     0.657600000000     0          
C178     C      0.180600000000     0.626400000000     0.626400000000     0          
C179     C      0.116200000000     0.693300000000     0.693300000000     0          
C180     C      0.241000000000     0.619200000000     0.619200000000     0          
C181     C      0.132400000000     0.593000000000     0.593000000000     0          
C182     C      0.273900000000     0.579600000000     0.579600000000     0          
O183     O      0.077100000000     0.605600000000     0.605600000000     0          
O184     O      0.149200000000     0.553600000000     0.553600000000     0          
N185     N      0.688600000000     0.688600000000     0.226500000000     0          
C186     C      0.669200000000     0.669200000000     0.171600000000     0          
N187     N      0.657600000000     0.657600000000     0.269400000000     0          
C188     C      0.626400000000     0.626400000000     0.180600000000     0          
C189     C      0.693300000000     0.693300000000     0.116200000000     0          
C190     C      0.619200000000     0.619200000000     0.241000000000     0          
C191     C      0.593000000000     0.593000000000     0.132400000000     0          
C192     C      0.579600000000     0.579600000000     0.273900000000     0          
O193     O      0.605600000000     0.605600000000     0.077100000000     0          
O194     O      0.553600000000     0.553600000000     0.149200000000     0          
N195     N      0.311400000000     0.688600000000     0.773500000000     0          
C196     C      0.330800000000     0.669200000000     0.828400000000     0          
N197     N      0.342400000000     0.657600000000     0.730600000000     0          
C198     C      0.373600000000     0.626400000000     0.819400000000     0          
C199     C      0.306700000000     0.693300000000     0.883800000000     0          
C200     C      0.380800000000     0.619200000000     0.759000000000     0          
C201     C      0.407000000000     0.593000000000     0.867600000000     0          
C202     C      0.420400000000     0.579600000000     0.726100000000     0          
O203     O      0.394400000000     0.605600000000     0.922900000000     0          
O204     O      0.446400000000     0.553600000000     0.850800000000     0          
N205     N      0.311400000000     0.311400000000     0.226500000000     0          
C206     C      0.330800000000     0.330800000000     0.171600000000     0          
N207     N      0.342400000000     0.342400000000     0.269400000000     0          
C208     C      0.373600000000     0.373600000000     0.180600000000     0          
C209     C      0.306700000000     0.306700000000     0.116200000000     0          
C210     C      0.380800000000     0.380800000000     0.241000000000     0          
C211     C      0.407000000000     0.407000000000     0.132400000000     0          
C212     C      0.420400000000     0.420400000000     0.273900000000     0          
O213     O      0.394400000000     0.394400000000     0.077100000000     0          
O214     O      0.446400000000     0.446400000000     0.149200000000     0          
N215     N      0.688600000000     0.311400000000     0.773500000000     0          
C216     C      0.669200000000     0.330800000000     0.828400000000     0          
N217     N      0.657600000000     0.342400000000     0.730600000000     0          
C218     C      0.626400000000     0.373600000000     0.819400000000     0          
C219     C      0.693300000000     0.306700000000     0.883800000000     0          
C220     C      0.619200000000     0.380800000000     0.759000000000     0          
C221     C      0.593000000000     0.407000000000     0.867600000000     0          
C222     C      0.579600000000     0.420400000000     0.726100000000     0          
O223     O      0.605600000000     0.394400000000     0.922900000000     0          
O224     O      0.553600000000     0.446400000000     0.850800000000     0          
N225     N      0.688600000000     0.773500000000     0.311400000000     0          
C226     C      0.669200000000     0.828400000000     0.330800000000     0          
N227     N      0.657600000000     0.730600000000     0.342400000000     0          
C228     C      0.626400000000     0.819400000000     0.373600000000     0          
C229     C      0.693300000000     0.883800000000     0.306700000000     0          
C230     C      0.619200000000     0.759000000000     0.380800000000     0          
C231     C      0.593000000000     0.867600000000     0.407000000000     0          
C232     C      0.579600000000     0.726100000000     0.420400000000     0          
O233     O      0.605600000000     0.922900000000     0.394400000000     0          
O234     O      0.553600000000     0.850800000000     0.446400000000     0          
N235     N      0.688600000000     0.226500000000     0.688600000000     0          
C236     C      0.669200000000     0.171600000000     0.669200000000     0          
N237     N      0.657600000000     0.269400000000     0.657600000000     0          
C238     C      0.626400000000     0.180600000000     0.626400000000     0          
C239     C      0.693300000000     0.116200000000     0.693300000000     0          
C240     C      0.619200000000     0.241000000000     0.619200000000     0          
C241     C      0.593000000000     0.132400000000     0.593000000000     0          
C242     C      0.579600000000     0.273900000000     0.579600000000     0          
O243     O      0.605600000000     0.077100000000     0.605600000000     0          
O244     O      0.553600000000     0.149200000000     0.553600000000     0          
N245     N      0.311400000000     0.773500000000     0.688600000000     0          
C246     C      0.330800000000     0.828400000000     0.669200000000     0          
N247     N      0.342400000000     0.730600000000     0.657600000000     0          
C248     C      0.373600000000     0.819400000000     0.626400000000     0          
C249     C      0.306700000000     0.883800000000     0.693300000000     0          
C250     C      0.380800000000     0.759000000000     0.619200000000     0          
C251     C      0.407000000000     0.867600000000     0.593000000000     0          
C252     C      0.420400000000     0.726100000000     0.579600000000     0          
O253     O      0.394400000000     0.922900000000     0.605600000000     0          
O254     O      0.446400000000     0.850800000000     0.553600000000     0          
N255     N      0.311400000000     0.226500000000     0.311400000000     0          
C256     C      0.330800000000     0.171600000000     0.330800000000     0          
N257     N      0.342400000000     0.269400000000     0.342400000000     0          
C258     C      0.373600000000     0.180600000000     0.373600000000     0          
C259     C      0.306700000000     0.116200000000     0.306700000000     0          
C260     C      0.380800000000     0.241000000000     0.380800000000     0          
C261     C      0.407000000000     0.132400000000     0.407000000000     0          
C262     C      0.420400000000     0.273900000000     0.420400000000     0          
O263     O      0.394400000000     0.077100000000     0.394400000000     0          
O264     O      0.446400000000     0.149200000000     0.446400000000     0          
Zr265    Zr     0.577130000000     0.000000000000     0.577130000000     0          
Zr266    Zr     0.422870000000     0.000000000000     0.577130000000     0          
Zr267    Zr     0.422870000000     0.000000000000     0.422870000000     0          
Zr268    Zr     0.577130000000     0.000000000000     0.422870000000     0          
Zr269    Zr     0.577130000000     0.577130000000     0.000000000000     0          
Zr270    Zr     0.577130000000     0.422870000000     0.000000000000     0          
Zr271    Zr     0.422870000000     0.422870000000     0.000000000000     0          
Zr272    Zr     0.422870000000     0.577130000000     0.000000000000     0          
Zr273    Zr     0.000000000000     0.577130000000     0.577130000000     0          
Zr274    Zr     0.000000000000     0.577130000000     0.422870000000     0          
Zr275    Zr     0.000000000000     0.422870000000     0.422870000000     0          
Zr276    Zr     0.000000000000     0.422870000000     0.577130000000     0          
Zr277    Zr     0.500000000000     0.890920000000     0.500000000000     0          
Zr278    Zr     0.500000000000     0.109080000000     0.500000000000     0          
Zr279    Zr     0.500000000000     0.500000000000     0.890920000000     0          
Zr280    Zr     0.500000000000     0.500000000000     0.109080000000     0          
Zr281    Zr     0.890920000000     0.500000000000     0.500000000000     0          
Zr282    Zr     0.109080000000     0.500000000000     0.500000000000     0          
O283     O      0.578400000000     0.954000000000     0.500000000000     0          
O284     O      0.421600000000     0.046000000000     0.500000000000     0          
O285     O      0.421600000000     0.954000000000     0.500000000000     0          
O286     O      0.578400000000     0.046000000000     0.500000000000     0          
O287     O      0.500000000000     0.578400000000     0.954000000000     0          
O288     O      0.500000000000     0.421600000000     0.046000000000     0          
O289     O      0.500000000000     0.421600000000     0.954000000000     0          
O290     O      0.500000000000     0.578400000000     0.046000000000     0          
O291     O      0.954000000000     0.500000000000     0.578400000000     0          
O292     O      0.046000000000     0.500000000000     0.421600000000     0          
O293     O      0.954000000000     0.500000000000     0.421600000000     0          
O294     O      0.046000000000     0.500000000000     0.578400000000     0          
O295     O      0.954000000000     0.578400000000     0.500000000000     0          
O296     O      0.046000000000     0.421600000000     0.500000000000     0          
O297     O      0.954000000000     0.421600000000     0.500000000000     0          
O298     O      0.046000000000     0.578400000000     0.500000000000     0          
O299     O      0.578400000000     0.500000000000     0.046000000000     0          
O300     O      0.421600000000     0.500000000000     0.954000000000     0          
O301     O      0.421600000000     0.500000000000     0.046000000000     0          
O302     O      0.578400000000     0.500000000000     0.954000000000     0          
O303     O      0.500000000000     0.954000000000     0.421600000000     0          
O304     O      0.500000000000     0.046000000000     0.578400000000     0          
O305     O      0.500000000000     0.954000000000     0.578400000000     0          
O306     O      0.500000000000     0.046000000000     0.421600000000     0          
O307     O      0.666700000000     0.000000000000     0.546900000000     0          
O308     O      0.333300000000     0.000000000000     0.546900000000     0          
O309     O      0.333300000000     0.000000000000     0.453100000000     0          
O310     O      0.666700000000     0.000000000000     0.453100000000     0          
O311     O      0.546900000000     0.666700000000     0.000000000000     0          
O312     O      0.546900000000     0.333300000000     0.000000000000     0          
O313     O      0.453100000000     0.333300000000     0.000000000000     0          
O314     O      0.453100000000     0.666700000000     0.000000000000     0          
O315     O      0.000000000000     0.546900000000     0.666700000000     0          
O316     O      0.000000000000     0.546900000000     0.333300000000     0          
O317     O      0.000000000000     0.453100000000     0.333300000000     0          
O318     O      0.000000000000     0.453100000000     0.666700000000     0          
O319     O      0.000000000000     0.666700000000     0.453100000000     0          
O320     O      0.000000000000     0.333300000000     0.453100000000     0          
O321     O      0.000000000000     0.333300000000     0.546900000000     0          
O322     O      0.000000000000     0.666700000000     0.546900000000     0          
O323     O      0.666700000000     0.546900000000     0.000000000000     0          
O324     O      0.333300000000     0.546900000000     0.000000000000     0          
O325     O      0.333300000000     0.453100000000     0.000000000000     0          
O326     O      0.666700000000     0.453100000000     0.000000000000     0          
O327     O      0.546900000000     0.000000000000     0.333300000000     0          
O328     O      0.546900000000     0.000000000000     0.666700000000     0          
O329     O      0.453100000000     0.000000000000     0.666700000000     0          
O330     O      0.453100000000     0.000000000000     0.333300000000     0          
C331     C      0.693800000000     0.000000000000     0.500000000000     0          
C332     C      0.306200000000     0.000000000000     0.500000000000     0          
C333     C      0.500000000000     0.693800000000     0.000000000000     0          
C334     C      0.500000000000     0.306200000000     0.000000000000     0          
C335     C      0.000000000000     0.500000000000     0.693800000000     0          
C336     C      0.000000000000     0.500000000000     0.306200000000     0          
C337     C      0.000000000000     0.693800000000     0.500000000000     0          
C338     C      0.000000000000     0.306200000000     0.500000000000     0          
C339     C      0.693800000000     0.500000000000     0.000000000000     0          
C340     C      0.306200000000     0.500000000000     0.000000000000     0          
C341     C      0.500000000000     0.000000000000     0.306200000000     0          
C342     C      0.500000000000     0.000000000000     0.693800000000     0          
H343     H      0.715710000000     0.909600000000     0.656650000000     0          
H344     H      0.726690000000     0.873290000000     0.729160000000     0          
H345     H      0.656070000000     0.911190000000     0.712650000000     0          
H346     H      0.689420000000     0.883370000000     0.256740000000     0          
H347     H      0.741510000000     0.888080000000     0.319680000000     0          
H348     H      0.667530000000     0.922630000000     0.325120000000     0          
H349     H      0.586290000000     0.676900000000     0.586390000000     0          
H350     H      0.589940000000     0.737950000000     0.532020000000     0          
H351     H      0.532030000000     0.738060000000     0.589840000000     0          
H352     H      0.598680000000     0.680580000000     0.429050000000     0          
H353     H      0.534540000000     0.721530000000     0.398950000000     0          
H354     H      0.575030000000     0.750810000000     0.463750000000     0          
H355     H      0.910400000000     0.714190000000     0.656330000000     0          
H356     H      0.910400000000     0.656330000000     0.714190000000     0          
H357     H      0.873270000000     0.727940000000     0.727940000000     0          
H358     H      0.876590000000     0.707430000000     0.259170000000     0          
H359     H      0.919470000000     0.658140000000     0.308450000000     0          
H360     H      0.898030000000     0.732900000000     0.333920000000     0          
H361     H      0.738010000000     0.532020000000     0.589890000000     0          
H362     H      0.738010000000     0.589890000000     0.532020000000     0          
H363     H      0.676900000000     0.586340000000     0.586340000000     0          
H364     H      0.752920000000     0.538060000000     0.428530000000     0          
H365     H      0.682360000000     0.567370000000     0.399230000000     0          
H366     H      0.717640000000     0.602820000000     0.463990000000     0          
H367     H      0.552550000000     0.241630000000     0.447560000000     0          
H368     H      0.548900000000     0.302670000000     0.393190000000     0          
H369     H      0.606810000000     0.302780000000     0.451010000000     0          
H370     H      0.885650000000     0.315220000000     0.257350000000     0          
H371     H      0.885650000000     0.257350000000     0.315220000000     0          
H372     H      0.922780000000     0.328960000000     0.328960000000     0          
H373     H      0.697270000000     0.393190000000     0.451050000000     0          
H374     H      0.697270000000     0.451050000000     0.393190000000     0          
H375     H      0.758370000000     0.447510000000     0.447510000000     0          
H376     H      0.919470000000     0.308450000000     0.658140000000     0          
H377     H      0.876590000000     0.259170000000     0.707430000000     0          
H378     H      0.898030000000     0.333920000000     0.732900000000     0          
H379     H      0.682360000000     0.399230000000     0.567370000000     0          
H380     H      0.752920000000     0.428530000000     0.538060000000     0          
H381     H      0.717640000000     0.463990000000     0.602820000000     0          
H382     H      0.540160000000     0.245300000000     0.567880000000     0          
H383     H      0.604290000000     0.286250000000     0.537780000000     0          
H384     H      0.563800000000     0.315530000000     0.602590000000     0          
H385     H      0.683260000000     0.113550000000     0.257680000000     0          
H386     H      0.672290000000     0.077230000000     0.330180000000     0          
H387     H      0.742910000000     0.115140000000     0.313670000000     0          
H388     H      0.709560000000     0.087310000000     0.655720000000     0          
H389     H      0.657470000000     0.092030000000     0.718650000000     0          
H390     H      0.731450000000     0.126580000000     0.724090000000     0          
H391     H      0.342530000000     0.092030000000     0.718650000000     0          
H392     H      0.290440000000     0.087310000000     0.655720000000     0          
H393     H      0.268550000000     0.126580000000     0.724090000000     0          
H394     H      0.395710000000     0.286250000000     0.537780000000     0          
H395     H      0.459840000000     0.245300000000     0.567880000000     0          
H396     H      0.436200000000     0.315530000000     0.602590000000     0          
H397     H      0.123410000000     0.259170000000     0.707430000000     0          
H398     H      0.080530000000     0.308450000000     0.658140000000     0          
H399     H      0.101970000000     0.333920000000     0.732900000000     0          
H400     H      0.247080000000     0.428530000000     0.538060000000     0          
H401     H      0.317640000000     0.399230000000     0.567370000000     0          
H402     H      0.282360000000     0.463990000000     0.602820000000     0          
H403     H      0.114350000000     0.257350000000     0.315220000000     0          
H404     H      0.114350000000     0.315220000000     0.257350000000     0          
H405     H      0.077220000000     0.328960000000     0.328960000000     0          
H406     H      0.302730000000     0.451050000000     0.393190000000     0          
H407     H      0.302730000000     0.393190000000     0.451050000000     0          
H408     H      0.241630000000     0.447510000000     0.447510000000     0          
H409     H      0.327710000000     0.077230000000     0.330180000000     0          
H410     H      0.316740000000     0.113550000000     0.257680000000     0          
H411     H      0.257090000000     0.115140000000     0.313670000000     0          
H412     H      0.451100000000     0.302670000000     0.393190000000     0          
H413     H      0.447450000000     0.241630000000     0.447560000000     0          
H414     H      0.393190000000     0.302780000000     0.451010000000     0          
H415     H      0.258490000000     0.888080000000     0.319680000000     0          
H416     H      0.310580000000     0.883370000000     0.256740000000     0          
H417     H      0.332470000000     0.922630000000     0.325120000000     0          
H418     H      0.465460000000     0.721530000000     0.398950000000     0          
H419     H      0.401320000000     0.680580000000     0.429050000000     0          
H420     H      0.424970000000     0.750810000000     0.463750000000     0          
H421     H      0.080530000000     0.658140000000     0.308450000000     0          
H422     H      0.123410000000     0.707430000000     0.259170000000     0          
H423     H      0.101970000000     0.732900000000     0.333920000000     0          
H424     H      0.317640000000     0.567370000000     0.399230000000     0          
H425     H      0.247080000000     0.538060000000     0.428530000000     0          
H426     H      0.282360000000     0.602820000000     0.463990000000     0          
H427     H      0.089600000000     0.656330000000     0.714190000000     0          
H428     H      0.089600000000     0.714190000000     0.656330000000     0          
H429     H      0.126730000000     0.727940000000     0.727940000000     0          
H430     H      0.261990000000     0.589890000000     0.532020000000     0          
H431     H      0.261990000000     0.532020000000     0.589890000000     0          
H432     H      0.323100000000     0.586340000000     0.586340000000     0          
H433     H      0.273310000000     0.873290000000     0.729160000000     0          
H434     H      0.284290000000     0.909600000000     0.656650000000     0          
H435     H      0.343930000000     0.911190000000     0.712650000000     0          
H436     H      0.410060000000     0.737950000000     0.532020000000     0          
H437     H      0.413710000000     0.676900000000     0.586390000000     0          
H438     H      0.467970000000     0.738060000000     0.589840000000     0          
H439     H      0.726690000000     0.729160000000     0.873290000000     0          
H440     H      0.715710000000     0.656650000000     0.909600000000     0          
H441     H      0.656070000000     0.712650000000     0.911190000000     0          
H442     H      0.589940000000     0.532020000000     0.737950000000     0          
H443     H      0.586290000000     0.586390000000     0.676900000000     0          
H444     H      0.532030000000     0.589840000000     0.738060000000     0          
H445     H      0.310580000000     0.256740000000     0.883370000000     0          
H446     H      0.258490000000     0.319680000000     0.888080000000     0          
H447     H      0.332470000000     0.325120000000     0.922630000000     0          
H448     H      0.401320000000     0.429050000000     0.680580000000     0          
H449     H      0.465460000000     0.398950000000     0.721530000000     0          
H450     H      0.424970000000     0.463750000000     0.750810000000     0          
H451     H      0.284290000000     0.656650000000     0.909600000000     0          
H452     H      0.273310000000     0.729160000000     0.873290000000     0          
H453     H      0.343930000000     0.712650000000     0.911190000000     0          
H454     H      0.413710000000     0.586390000000     0.676900000000     0          
H455     H      0.410060000000     0.532020000000     0.737950000000     0          
H456     H      0.467970000000     0.589840000000     0.738060000000     0          
H457     H      0.741510000000     0.319680000000     0.888080000000     0          
H458     H      0.689420000000     0.256740000000     0.883370000000     0          
H459     H      0.667530000000     0.325120000000     0.922630000000     0          
H460     H      0.534540000000     0.398950000000     0.721530000000     0          
H461     H      0.598680000000     0.429050000000     0.680580000000     0          
H462     H      0.575030000000     0.463750000000     0.750810000000     0          
H463     H      0.672290000000     0.330180000000     0.077230000000     0          
H464     H      0.683260000000     0.257680000000     0.113550000000     0          
H465     H      0.742910000000     0.313670000000     0.115140000000     0          
H466     H      0.548900000000     0.393190000000     0.302670000000     0          
H467     H      0.552550000000     0.447560000000     0.241630000000     0          
H468     H      0.606810000000     0.451010000000     0.302780000000     0          
H469     H      0.290440000000     0.655720000000     0.087310000000     0          
H470     H      0.342530000000     0.718650000000     0.092030000000     0          
H471     H      0.268550000000     0.724090000000     0.126580000000     0          
H472     H      0.459840000000     0.567880000000     0.245300000000     0          
H473     H      0.395710000000     0.537780000000     0.286250000000     0          
H474     H      0.436200000000     0.602590000000     0.315530000000     0          
H475     H      0.657470000000     0.718650000000     0.092030000000     0          
H476     H      0.709560000000     0.655720000000     0.087310000000     0          
H477     H      0.731450000000     0.724090000000     0.126580000000     0          
H478     H      0.604290000000     0.537780000000     0.286250000000     0          
H479     H      0.540160000000     0.567880000000     0.245300000000     0          
H480     H      0.563800000000     0.602590000000     0.315530000000     0          
H481     H      0.316740000000     0.257680000000     0.113550000000     0          
H482     H      0.327710000000     0.330180000000     0.077230000000     0          
H483     H      0.257090000000     0.313670000000     0.115140000000     0          
H484     H      0.447450000000     0.447560000000     0.241630000000     0          
H485     H      0.451100000000     0.393190000000     0.302670000000     0          
H486     H      0.393190000000     0.451010000000     0.302780000000     0          


