data_NEVHII

_audit_creation_method RASPA-1.0
_audit_creation_date 2020-11-2
_audit_author_name 'Rocio Bueno-Perez'

_cell_length_a    38.555
_cell_length_b    38.555
_cell_length_c    17.0605
_cell_angle_alpha 90
_cell_angle_beta  90
_cell_angle_gamma 120
_cell_volume      21962.6

_symmetry_cell_setting          hexagonal
_symmetry_space_group_name_Hall 'P 1'
_symmetry_space_group_name_H-M  'P 1'
_symmetry_Int_Tables_number     1

_symmetry_equiv_pos_as_xyz 'x,y,z'

loop_
_atom_site_label
_atom_site_type_symbol
_atom_site_fract_x
_atom_site_fract_y
_atom_site_fract_z
_atom_site_charge
C1       C      0.096900000000     0.495500000000     0.368900000000     0          
C2       C      0.127900000000     0.497100000000     0.315100000000     0          
C3       C      0.166200000000     0.528200000000     0.322600000000     0          
H1       H      0.172600000000     0.547880000000     0.362150000000     0          
C4       C      0.196200000000     0.531000000000     0.271100000000     0          
H2       H      0.222900000000     0.552620000000     0.276720000000     0          
C5       C      0.187900000000     0.503800000000     0.214300000000     0          
C6       C      0.150000000000     0.472600000000     0.205400000000     0          
H3       H      0.144340000000     0.452580000000     0.167100000000     0          
C7       C      0.118400000000     0.470000000000     0.254500000000     0          
H4       H      0.091340000000     0.449970000000     0.245320000000     0          
C9       C      0.220900000000     0.504000000000     0.165100000000     0          
C10      C      0.220300000000     0.505100000000     0.082800000000     0          
C12      C      0.189500000000     0.506400000000     0.040200000000     0          
H6       H      0.168530000000     0.507240000000     0.067640000000     0          
O1       O      0.106860000000     0.519400000000     0.422400000000     0          
O6       O      0.061400000000     0.466800000000     0.352800000000     0          
C8       C      0.252850000000     0.505700000000     0.201600000000     0          
H5       H      0.254170000000     0.508340000000     0.257030000000     0          
C11      C      0.252700000000     0.505400000000     0.039500000000     0          
Zr2      Zr     0.000000000000     0.454000000000     0.396110000000     0          
O4       O      0.964100000000     0.482050000000     0.395600000000     0          
O5       O      0.962300000000     0.437800000000     0.500000000000     0          
Zr1      Zr     0.072920000000     0.536460000000     0.500000000000     0          
C1       C      0.601400000000     0.096900000000     0.368900000000     0          
C2       C      0.630800000000     0.127900000000     0.315100000000     0          
C3       C      0.638000000000     0.166200000000     0.322600000000     0          
H1       H      0.624720000000     0.172600000000     0.362150000000     0          
C4       C      0.665200000000     0.196200000000     0.271100000000     0          
H2       H      0.670280000000     0.222900000000     0.276720000000     0          
C5       C      0.684100000000     0.187900000000     0.214300000000     0          
C6       C      0.677400000000     0.150000000000     0.205400000000     0          
H3       H      0.691760000000     0.144340000000     0.167100000000     0          
C7       C      0.648400000000     0.118400000000     0.254500000000     0          
H4       H      0.641370000000     0.091340000000     0.245320000000     0          
C9       C      0.716900000000     0.220900000000     0.165100000000     0          
C10      C      0.715200000000     0.220300000000     0.082800000000     0          
C12      C      0.683100000000     0.189500000000     0.040200000000     0          
H6       H      0.661290000000     0.168530000000     0.067640000000     0          
O1       O      0.587460000000     0.106860000000     0.422400000000     0          
O6       O      0.594600000000     0.061400000000     0.352800000000     0          
C8       C      0.747150000000     0.252850000000     0.201600000000     0          
H5       H      0.745830000000     0.254170000000     0.257030000000     0          
C11      C      0.747300000000     0.252700000000     0.039500000000     0          
Zr2      Zr     0.546000000000     0.000000000000     0.396110000000     0          
O4       O      0.482050000000     0.964100000000     0.395600000000     0          
O5       O      0.524500000000     0.962300000000     0.500000000000     0          
Zr1      Zr     0.536460000000     0.072920000000     0.500000000000     0          
C1       C      0.504500000000     0.601400000000     0.368900000000     0          
C2       C      0.502900000000     0.630800000000     0.315100000000     0          
C3       C      0.471800000000     0.638000000000     0.322600000000     0          
H1       H      0.452120000000     0.624720000000     0.362150000000     0          
C4       C      0.469000000000     0.665200000000     0.271100000000     0          
H2       H      0.447380000000     0.670280000000     0.276720000000     0          
C5       C      0.496200000000     0.684100000000     0.214300000000     0          
C6       C      0.527400000000     0.677400000000     0.205400000000     0          
H3       H      0.547420000000     0.691760000000     0.167100000000     0          
C7       C      0.530000000000     0.648400000000     0.254500000000     0          
H4       H      0.550030000000     0.641370000000     0.245320000000     0          
C9       C      0.496000000000     0.716900000000     0.165100000000     0          
C10      C      0.494900000000     0.715200000000     0.082800000000     0          
C12      C      0.493600000000     0.683100000000     0.040200000000     0          
H6       H      0.492760000000     0.661290000000     0.067640000000     0          
O1       O      0.480600000000     0.587460000000     0.422400000000     0          
O6       O      0.533200000000     0.594600000000     0.352800000000     0          
C8       C      0.494300000000     0.747150000000     0.201600000000     0          
H5       H      0.491660000000     0.745830000000     0.257030000000     0          
C11      C      0.494600000000     0.747300000000     0.039500000000     0          
Zr2      Zr     0.546000000000     0.546000000000     0.396110000000     0          
O4       O      0.517950000000     0.482050000000     0.395600000000     0          
O5       O      0.562200000000     0.524500000000     0.500000000000     0          
Zr1      Zr     0.463540000000     0.536460000000     0.500000000000     0          
C1       C      0.903100000000     0.504500000000     0.368900000000     0          
C2       C      0.872100000000     0.502900000000     0.315100000000     0          
C3       C      0.833800000000     0.471800000000     0.322600000000     0          
H1       H      0.827400000000     0.452120000000     0.362150000000     0          
C4       C      0.803800000000     0.469000000000     0.271100000000     0          
H2       H      0.777100000000     0.447380000000     0.276720000000     0          
C5       C      0.812100000000     0.496200000000     0.214300000000     0          
C6       C      0.850000000000     0.527400000000     0.205400000000     0          
H3       H      0.855660000000     0.547420000000     0.167100000000     0          
C7       C      0.881600000000     0.530000000000     0.254500000000     0          
H4       H      0.908660000000     0.550030000000     0.245320000000     0          
C9       C      0.779100000000     0.496000000000     0.165100000000     0          
C10      C      0.779700000000     0.494900000000     0.082800000000     0          
C12      C      0.810500000000     0.493600000000     0.040200000000     0          
H6       H      0.831470000000     0.492760000000     0.067640000000     0          
O1       O      0.893140000000     0.480600000000     0.422400000000     0          
O6       O      0.938600000000     0.533200000000     0.352800000000     0          
C8       C      0.747150000000     0.494300000000     0.201600000000     0          
H5       H      0.745830000000     0.491660000000     0.257030000000     0          
C11      C      0.747300000000     0.494600000000     0.039500000000     0          
Zr2      Zr     0.000000000000     0.546000000000     0.396110000000     0          
O4       O      0.035900000000     0.517950000000     0.395600000000     0          
O5       O      0.037700000000     0.562200000000     0.500000000000     0          
Zr1      Zr     0.927080000000     0.463540000000     0.500000000000     0          
C1       C      0.398600000000     0.903100000000     0.368900000000     0          
C2       C      0.369200000000     0.872100000000     0.315100000000     0          
C3       C      0.362000000000     0.833800000000     0.322600000000     0          
H1       H      0.375280000000     0.827400000000     0.362150000000     0          
C4       C      0.334800000000     0.803800000000     0.271100000000     0          
H2       H      0.329720000000     0.777100000000     0.276720000000     0          
C5       C      0.315900000000     0.812100000000     0.214300000000     0          
C6       C      0.322600000000     0.850000000000     0.205400000000     0          
H3       H      0.308240000000     0.855660000000     0.167100000000     0          
C7       C      0.351600000000     0.881600000000     0.254500000000     0          
H4       H      0.358630000000     0.908660000000     0.245320000000     0          
C9       C      0.283100000000     0.779100000000     0.165100000000     0          
C10      C      0.284800000000     0.779700000000     0.082800000000     0          
C12      C      0.316900000000     0.810500000000     0.040200000000     0          
H6       H      0.338710000000     0.831470000000     0.067640000000     0          
O1       O      0.412540000000     0.893140000000     0.422400000000     0          
O6       O      0.405400000000     0.938600000000     0.352800000000     0          
C8       C      0.252850000000     0.747150000000     0.201600000000     0          
H5       H      0.254170000000     0.745830000000     0.257030000000     0          
C11      C      0.252700000000     0.747300000000     0.039500000000     0          
Zr2      Zr     0.454000000000     0.000000000000     0.396110000000     0          
O4       O      0.517950000000     0.035900000000     0.395600000000     0          
O5       O      0.475500000000     0.037700000000     0.500000000000     0          
Zr1      Zr     0.463540000000     0.927080000000     0.500000000000     0          
C1       C      0.495500000000     0.398600000000     0.368900000000     0          
C2       C      0.497100000000     0.369200000000     0.315100000000     0          
C3       C      0.528200000000     0.362000000000     0.322600000000     0          
H1       H      0.547880000000     0.375280000000     0.362150000000     0          
C4       C      0.531000000000     0.334800000000     0.271100000000     0          
H2       H      0.552620000000     0.329720000000     0.276720000000     0          
C5       C      0.503800000000     0.315900000000     0.214300000000     0          
C6       C      0.472600000000     0.322600000000     0.205400000000     0          
H3       H      0.452580000000     0.308240000000     0.167100000000     0          
C7       C      0.470000000000     0.351600000000     0.254500000000     0          
H4       H      0.449970000000     0.358630000000     0.245320000000     0          
C9       C      0.504000000000     0.283100000000     0.165100000000     0          
C10      C      0.505100000000     0.284800000000     0.082800000000     0          
C12      C      0.506400000000     0.316900000000     0.040200000000     0          
H6       H      0.507240000000     0.338710000000     0.067640000000     0          
O1       O      0.519400000000     0.412540000000     0.422400000000     0          
O6       O      0.466800000000     0.405400000000     0.352800000000     0          
C8       C      0.505700000000     0.252850000000     0.201600000000     0          
H5       H      0.508340000000     0.254170000000     0.257030000000     0          
C11      C      0.505400000000     0.252700000000     0.039500000000     0          
Zr2      Zr     0.454000000000     0.454000000000     0.396110000000     0          
O4       O      0.482050000000     0.517950000000     0.395600000000     0          
O5       O      0.437800000000     0.475500000000     0.500000000000     0          
Zr1      Zr     0.536460000000     0.463540000000     0.500000000000     0          
C1       C      0.504500000000     0.903100000000     0.631100000000     0          
C2       C      0.502900000000     0.872100000000     0.684900000000     0          
C3       C      0.471800000000     0.833800000000     0.677400000000     0          
H1       H      0.452120000000     0.827400000000     0.637850000000     0          
C4       C      0.469000000000     0.803800000000     0.728900000000     0          
H2       H      0.447380000000     0.777100000000     0.723280000000     0          
C5       C      0.496200000000     0.812100000000     0.785700000000     0          
C6       C      0.527400000000     0.850000000000     0.794600000000     0          
H3       H      0.547420000000     0.855660000000     0.832900000000     0          
C7       C      0.530000000000     0.881600000000     0.745500000000     0          
H4       H      0.550030000000     0.908660000000     0.754680000000     0          
C9       C      0.496000000000     0.779100000000     0.834900000000     0          
C10      C      0.494900000000     0.779700000000     0.917200000000     0          
C12      C      0.493600000000     0.810500000000     0.959800000000     0          
H6       H      0.492760000000     0.831470000000     0.932360000000     0          
O1       O      0.480600000000     0.893140000000     0.577600000000     0          
O6       O      0.533200000000     0.938600000000     0.647200000000     0          
C8       C      0.494300000000     0.747150000000     0.798400000000     0          
H5       H      0.491660000000     0.745830000000     0.742970000000     0          
C11      C      0.494600000000     0.747300000000     0.960500000000     0          
Zr2      Zr     0.546000000000     0.000000000000     0.603890000000     0          
O4       O      0.517950000000     0.035900000000     0.604400000000     0          
O5       O      0.562200000000     0.037700000000     0.500000000000     0          
C1       C      0.601400000000     0.504500000000     0.631100000000     0          
C2       C      0.630800000000     0.502900000000     0.684900000000     0          
C3       C      0.638000000000     0.471800000000     0.677400000000     0          
H1       H      0.624720000000     0.452120000000     0.637850000000     0          
C4       C      0.665200000000     0.469000000000     0.728900000000     0          
H2       H      0.670280000000     0.447380000000     0.723280000000     0          
C5       C      0.684100000000     0.496200000000     0.785700000000     0          
C6       C      0.677400000000     0.527400000000     0.794600000000     0          
H3       H      0.691760000000     0.547420000000     0.832900000000     0          
C7       C      0.648400000000     0.530000000000     0.745500000000     0          
H4       H      0.641370000000     0.550030000000     0.754680000000     0          
C9       C      0.716900000000     0.496000000000     0.834900000000     0          
C10      C      0.715200000000     0.494900000000     0.917200000000     0          
C12      C      0.683100000000     0.493600000000     0.959800000000     0          
H6       H      0.661290000000     0.492760000000     0.932360000000     0          
O1       O      0.587460000000     0.480600000000     0.577600000000     0          
O6       O      0.594600000000     0.533200000000     0.647200000000     0          
C8       C      0.747150000000     0.494300000000     0.798400000000     0          
H5       H      0.745830000000     0.491660000000     0.742970000000     0          
C11      C      0.747300000000     0.494600000000     0.960500000000     0          
Zr2      Zr     0.546000000000     0.546000000000     0.603890000000     0          
O4       O      0.482050000000     0.517950000000     0.604400000000     0          
O5       O      0.524500000000     0.562200000000     0.500000000000     0          
C1       C      0.096900000000     0.601400000000     0.631100000000     0          
C2       C      0.127900000000     0.630800000000     0.684900000000     0          
C3       C      0.166200000000     0.638000000000     0.677400000000     0          
H1       H      0.172600000000     0.624720000000     0.637850000000     0          
C4       C      0.196200000000     0.665200000000     0.728900000000     0          
H2       H      0.222900000000     0.670280000000     0.723280000000     0          
C5       C      0.187900000000     0.684100000000     0.785700000000     0          
C6       C      0.150000000000     0.677400000000     0.794600000000     0          
H3       H      0.144340000000     0.691760000000     0.832900000000     0          
C7       C      0.118400000000     0.648400000000     0.745500000000     0          
H4       H      0.091340000000     0.641370000000     0.754680000000     0          
C9       C      0.220900000000     0.716900000000     0.834900000000     0          
C10      C      0.220300000000     0.715200000000     0.917200000000     0          
C12      C      0.189500000000     0.683100000000     0.959800000000     0          
H6       H      0.168530000000     0.661290000000     0.932360000000     0          
O1       O      0.106860000000     0.587460000000     0.577600000000     0          
O6       O      0.061400000000     0.594600000000     0.647200000000     0          
C8       C      0.252850000000     0.747150000000     0.798400000000     0          
H5       H      0.254170000000     0.745830000000     0.742970000000     0          
C11      C      0.252700000000     0.747300000000     0.960500000000     0          
Zr2      Zr     0.000000000000     0.546000000000     0.603890000000     0          
O4       O      0.964100000000     0.482050000000     0.604400000000     0          
O5       O      0.962300000000     0.524500000000     0.500000000000     0          
C1       C      0.495500000000     0.096900000000     0.631100000000     0          
C2       C      0.497100000000     0.127900000000     0.684900000000     0          
C3       C      0.528200000000     0.166200000000     0.677400000000     0          
H1       H      0.547880000000     0.172600000000     0.637850000000     0          
C4       C      0.531000000000     0.196200000000     0.728900000000     0          
H2       H      0.552620000000     0.222900000000     0.723280000000     0          
C5       C      0.503800000000     0.187900000000     0.785700000000     0          
C6       C      0.472600000000     0.150000000000     0.794600000000     0          
H3       H      0.452580000000     0.144340000000     0.832900000000     0          
C7       C      0.470000000000     0.118400000000     0.745500000000     0          
H4       H      0.449970000000     0.091340000000     0.754680000000     0          
C9       C      0.504000000000     0.220900000000     0.834900000000     0          
C10      C      0.505100000000     0.220300000000     0.917200000000     0          
C12      C      0.506400000000     0.189500000000     0.959800000000     0          
H6       H      0.507240000000     0.168530000000     0.932360000000     0          
O1       O      0.519400000000     0.106860000000     0.577600000000     0          
O6       O      0.466800000000     0.061400000000     0.647200000000     0          
C8       C      0.505700000000     0.252850000000     0.798400000000     0          
H5       H      0.508340000000     0.254170000000     0.742970000000     0          
C11      C      0.505400000000     0.252700000000     0.960500000000     0          
Zr2      Zr     0.454000000000     0.000000000000     0.603890000000     0          
O4       O      0.482050000000     0.964100000000     0.604400000000     0          
O5       O      0.437800000000     0.962300000000     0.500000000000     0          
C1       C      0.398600000000     0.495500000000     0.631100000000     0          
C2       C      0.369200000000     0.497100000000     0.684900000000     0          
C3       C      0.362000000000     0.528200000000     0.677400000000     0          
H1       H      0.375280000000     0.547880000000     0.637850000000     0          
C4       C      0.334800000000     0.531000000000     0.728900000000     0          
H2       H      0.329720000000     0.552620000000     0.723280000000     0          
C5       C      0.315900000000     0.503800000000     0.785700000000     0          
C6       C      0.322600000000     0.472600000000     0.794600000000     0          
H3       H      0.308240000000     0.452580000000     0.832900000000     0          
C7       C      0.351600000000     0.470000000000     0.745500000000     0          
H4       H      0.358630000000     0.449970000000     0.754680000000     0          
C9       C      0.283100000000     0.504000000000     0.834900000000     0          
C10      C      0.284800000000     0.505100000000     0.917200000000     0          
C12      C      0.316900000000     0.506400000000     0.959800000000     0          
H6       H      0.338710000000     0.507240000000     0.932360000000     0          
O1       O      0.412540000000     0.519400000000     0.577600000000     0          
O6       O      0.405400000000     0.466800000000     0.647200000000     0          
C8       C      0.252850000000     0.505700000000     0.798400000000     0          
H5       H      0.254170000000     0.508340000000     0.742970000000     0          
C11      C      0.252700000000     0.505400000000     0.960500000000     0          
Zr2      Zr     0.454000000000     0.454000000000     0.603890000000     0          
O4       O      0.517950000000     0.482050000000     0.604400000000     0          
O5       O      0.475500000000     0.437800000000     0.500000000000     0          
C1       C      0.903100000000     0.398600000000     0.631100000000     0          
C2       C      0.872100000000     0.369200000000     0.684900000000     0          
C3       C      0.833800000000     0.362000000000     0.677400000000     0          
H1       H      0.827400000000     0.375280000000     0.637850000000     0          
C4       C      0.803800000000     0.334800000000     0.728900000000     0          
H2       H      0.777100000000     0.329720000000     0.723280000000     0          
C5       C      0.812100000000     0.315900000000     0.785700000000     0          
C6       C      0.850000000000     0.322600000000     0.794600000000     0          
H3       H      0.855660000000     0.308240000000     0.832900000000     0          
C7       C      0.881600000000     0.351600000000     0.745500000000     0          
H4       H      0.908660000000     0.358630000000     0.754680000000     0          
C9       C      0.779100000000     0.283100000000     0.834900000000     0          
C10      C      0.779700000000     0.284800000000     0.917200000000     0          
C12      C      0.810500000000     0.316900000000     0.959800000000     0          
H6       H      0.831470000000     0.338710000000     0.932360000000     0          
O1       O      0.893140000000     0.412540000000     0.577600000000     0          
O6       O      0.938600000000     0.405400000000     0.647200000000     0          
C8       C      0.747150000000     0.252850000000     0.798400000000     0          
H5       H      0.745830000000     0.254170000000     0.742970000000     0          
C11      C      0.747300000000     0.252700000000     0.960500000000     0          
Zr2      Zr     0.000000000000     0.454000000000     0.603890000000     0          
O4       O      0.035900000000     0.517950000000     0.604400000000     0          
O5       O      0.037700000000     0.475500000000     0.500000000000     0          
C1       C      0.903100000000     0.504500000000     0.631100000000     0          
C2       C      0.872100000000     0.502900000000     0.684900000000     0          
C3       C      0.833800000000     0.471800000000     0.677400000000     0          
H1       H      0.827400000000     0.452120000000     0.637850000000     0          
C4       C      0.803800000000     0.469000000000     0.728900000000     0          
H2       H      0.777100000000     0.447380000000     0.723280000000     0          
C5       C      0.812100000000     0.496200000000     0.785700000000     0          
C6       C      0.850000000000     0.527400000000     0.794600000000     0          
H3       H      0.855660000000     0.547420000000     0.832900000000     0          
C7       C      0.881600000000     0.530000000000     0.745500000000     0          
H4       H      0.908660000000     0.550030000000     0.754680000000     0          
C9       C      0.779100000000     0.496000000000     0.834900000000     0          
C10      C      0.779700000000     0.494900000000     0.917200000000     0          
C12      C      0.810500000000     0.493600000000     0.959800000000     0          
H6       H      0.831470000000     0.492760000000     0.932360000000     0          
O1       O      0.893140000000     0.480600000000     0.577600000000     0          
O6       O      0.938600000000     0.533200000000     0.647200000000     0          
C1       C      0.398600000000     0.903100000000     0.631100000000     0          
C2       C      0.369200000000     0.872100000000     0.684900000000     0          
C3       C      0.362000000000     0.833800000000     0.677400000000     0          
H1       H      0.375280000000     0.827400000000     0.637850000000     0          
C4       C      0.334800000000     0.803800000000     0.728900000000     0          
H2       H      0.329720000000     0.777100000000     0.723280000000     0          
C5       C      0.315900000000     0.812100000000     0.785700000000     0          
C6       C      0.322600000000     0.850000000000     0.794600000000     0          
H3       H      0.308240000000     0.855660000000     0.832900000000     0          
C7       C      0.351600000000     0.881600000000     0.745500000000     0          
H4       H      0.358630000000     0.908660000000     0.754680000000     0          
C9       C      0.283100000000     0.779100000000     0.834900000000     0          
C10      C      0.284800000000     0.779700000000     0.917200000000     0          
C12      C      0.316900000000     0.810500000000     0.959800000000     0          
H6       H      0.338710000000     0.831470000000     0.932360000000     0          
O1       O      0.412540000000     0.893140000000     0.577600000000     0          
O6       O      0.405400000000     0.938600000000     0.647200000000     0          
C1       C      0.495500000000     0.398600000000     0.631100000000     0          
C2       C      0.497100000000     0.369200000000     0.684900000000     0          
C3       C      0.528200000000     0.362000000000     0.677400000000     0          
H1       H      0.547880000000     0.375280000000     0.637850000000     0          
C4       C      0.531000000000     0.334800000000     0.728900000000     0          
H2       H      0.552620000000     0.329720000000     0.723280000000     0          
C5       C      0.503800000000     0.315900000000     0.785700000000     0          
C6       C      0.472600000000     0.322600000000     0.794600000000     0          
H3       H      0.452580000000     0.308240000000     0.832900000000     0          
C7       C      0.470000000000     0.351600000000     0.745500000000     0          
H4       H      0.449970000000     0.358630000000     0.754680000000     0          
C9       C      0.504000000000     0.283100000000     0.834900000000     0          
C10      C      0.505100000000     0.284800000000     0.917200000000     0          
C12      C      0.506400000000     0.316900000000     0.959800000000     0          
H6       H      0.507240000000     0.338710000000     0.932360000000     0          
O1       O      0.519400000000     0.412540000000     0.577600000000     0          
O6       O      0.466800000000     0.405400000000     0.647200000000     0          
C1       C      0.096900000000     0.495500000000     0.631100000000     0          
C2       C      0.127900000000     0.497100000000     0.684900000000     0          
C3       C      0.166200000000     0.528200000000     0.677400000000     0          
H1       H      0.172600000000     0.547880000000     0.637850000000     0          
C4       C      0.196200000000     0.531000000000     0.728900000000     0          
H2       H      0.222900000000     0.552620000000     0.723280000000     0          
C5       C      0.187900000000     0.503800000000     0.785700000000     0          
C6       C      0.150000000000     0.472600000000     0.794600000000     0          
H3       H      0.144340000000     0.452580000000     0.832900000000     0          
C7       C      0.118400000000     0.470000000000     0.745500000000     0          
H4       H      0.091340000000     0.449970000000     0.754680000000     0          
C9       C      0.220900000000     0.504000000000     0.834900000000     0          
C10      C      0.220300000000     0.505100000000     0.917200000000     0          
C12      C      0.189500000000     0.506400000000     0.959800000000     0          
H6       H      0.168530000000     0.507240000000     0.932360000000     0          
O1       O      0.106860000000     0.519400000000     0.577600000000     0          
O6       O      0.061400000000     0.466800000000     0.647200000000     0          
C1       C      0.601400000000     0.096900000000     0.631100000000     0          
C2       C      0.630800000000     0.127900000000     0.684900000000     0          
C3       C      0.638000000000     0.166200000000     0.677400000000     0          
H1       H      0.624720000000     0.172600000000     0.637850000000     0          
C4       C      0.665200000000     0.196200000000     0.728900000000     0          
H2       H      0.670280000000     0.222900000000     0.723280000000     0          
C5       C      0.684100000000     0.187900000000     0.785700000000     0          
C6       C      0.677400000000     0.150000000000     0.794600000000     0          
H3       H      0.691760000000     0.144340000000     0.832900000000     0          
C7       C      0.648400000000     0.118400000000     0.745500000000     0          
H4       H      0.641370000000     0.091340000000     0.754680000000     0          
C9       C      0.716900000000     0.220900000000     0.834900000000     0          
C10      C      0.715200000000     0.220300000000     0.917200000000     0          
C12      C      0.683100000000     0.189500000000     0.959800000000     0          
H6       H      0.661290000000     0.168530000000     0.932360000000     0          
O1       O      0.587460000000     0.106860000000     0.577600000000     0          
O6       O      0.594600000000     0.061400000000     0.647200000000     0          
C1       C      0.504500000000     0.601400000000     0.631100000000     0          
C2       C      0.502900000000     0.630800000000     0.684900000000     0          
C3       C      0.471800000000     0.638000000000     0.677400000000     0          
H1       H      0.452120000000     0.624720000000     0.637850000000     0          
C4       C      0.469000000000     0.665200000000     0.728900000000     0          
H2       H      0.447380000000     0.670280000000     0.723280000000     0          
C5       C      0.496200000000     0.684100000000     0.785700000000     0          
C6       C      0.527400000000     0.677400000000     0.794600000000     0          
H3       H      0.547420000000     0.691760000000     0.832900000000     0          
C7       C      0.530000000000     0.648400000000     0.745500000000     0          
H4       H      0.550030000000     0.641370000000     0.754680000000     0          
C9       C      0.496000000000     0.716900000000     0.834900000000     0          
C10      C      0.494900000000     0.715200000000     0.917200000000     0          
C12      C      0.493600000000     0.683100000000     0.959800000000     0          
H6       H      0.492760000000     0.661290000000     0.932360000000     0          
O1       O      0.480600000000     0.587460000000     0.577600000000     0          
O6       O      0.533200000000     0.594600000000     0.647200000000     0          
C1       C      0.495500000000     0.096900000000     0.368900000000     0          
C2       C      0.497100000000     0.127900000000     0.315100000000     0          
C3       C      0.528200000000     0.166200000000     0.322600000000     0          
H1       H      0.547880000000     0.172600000000     0.362150000000     0          
C4       C      0.531000000000     0.196200000000     0.271100000000     0          
H2       H      0.552620000000     0.222900000000     0.276720000000     0          
C5       C      0.503800000000     0.187900000000     0.214300000000     0          
C6       C      0.472600000000     0.150000000000     0.205400000000     0          
H3       H      0.452580000000     0.144340000000     0.167100000000     0          
C7       C      0.470000000000     0.118400000000     0.254500000000     0          
H4       H      0.449970000000     0.091340000000     0.245320000000     0          
C9       C      0.504000000000     0.220900000000     0.165100000000     0          
C10      C      0.505100000000     0.220300000000     0.082800000000     0          
C12      C      0.506400000000     0.189500000000     0.040200000000     0          
H6       H      0.507240000000     0.168530000000     0.067640000000     0          
O1       O      0.519400000000     0.106860000000     0.422400000000     0          
O6       O      0.466800000000     0.061400000000     0.352800000000     0          
C1       C      0.398600000000     0.495500000000     0.368900000000     0          
C2       C      0.369200000000     0.497100000000     0.315100000000     0          
C3       C      0.362000000000     0.528200000000     0.322600000000     0          
H1       H      0.375280000000     0.547880000000     0.362150000000     0          
C4       C      0.334800000000     0.531000000000     0.271100000000     0          
H2       H      0.329720000000     0.552620000000     0.276720000000     0          
C5       C      0.315900000000     0.503800000000     0.214300000000     0          
C6       C      0.322600000000     0.472600000000     0.205400000000     0          
H3       H      0.308240000000     0.452580000000     0.167100000000     0          
C7       C      0.351600000000     0.470000000000     0.254500000000     0          
H4       H      0.358630000000     0.449970000000     0.245320000000     0          
C9       C      0.283100000000     0.504000000000     0.165100000000     0          
C10      C      0.284800000000     0.505100000000     0.082800000000     0          
C12      C      0.316900000000     0.506400000000     0.040200000000     0          
H6       H      0.338710000000     0.507240000000     0.067640000000     0          
O1       O      0.412540000000     0.519400000000     0.422400000000     0          
O6       O      0.405400000000     0.466800000000     0.352800000000     0          
C1       C      0.903100000000     0.398600000000     0.368900000000     0          
C2       C      0.872100000000     0.369200000000     0.315100000000     0          
C3       C      0.833800000000     0.362000000000     0.322600000000     0          
H1       H      0.827400000000     0.375280000000     0.362150000000     0          
C4       C      0.803800000000     0.334800000000     0.271100000000     0          
H2       H      0.777100000000     0.329720000000     0.276720000000     0          
C5       C      0.812100000000     0.315900000000     0.214300000000     0          
C6       C      0.850000000000     0.322600000000     0.205400000000     0          
H3       H      0.855660000000     0.308240000000     0.167100000000     0          
C7       C      0.881600000000     0.351600000000     0.254500000000     0          
H4       H      0.908660000000     0.358630000000     0.245320000000     0          
C9       C      0.779100000000     0.283100000000     0.165100000000     0          
C10      C      0.779700000000     0.284800000000     0.082800000000     0          
C12      C      0.810500000000     0.316900000000     0.040200000000     0          
H6       H      0.831470000000     0.338710000000     0.067640000000     0          
O1       O      0.893140000000     0.412540000000     0.422400000000     0          
O6       O      0.938600000000     0.405400000000     0.352800000000     0          
C1       C      0.504500000000     0.903100000000     0.368900000000     0          
C2       C      0.502900000000     0.872100000000     0.315100000000     0          
C3       C      0.471800000000     0.833800000000     0.322600000000     0          
H1       H      0.452120000000     0.827400000000     0.362150000000     0          
C4       C      0.469000000000     0.803800000000     0.271100000000     0          
H2       H      0.447380000000     0.777100000000     0.276720000000     0          
C5       C      0.496200000000     0.812100000000     0.214300000000     0          
C6       C      0.527400000000     0.850000000000     0.205400000000     0          
H3       H      0.547420000000     0.855660000000     0.167100000000     0          
C7       C      0.530000000000     0.881600000000     0.254500000000     0          
H4       H      0.550030000000     0.908660000000     0.245320000000     0          
C9       C      0.496000000000     0.779100000000     0.165100000000     0          
C10      C      0.494900000000     0.779700000000     0.082800000000     0          
C12      C      0.493600000000     0.810500000000     0.040200000000     0          
H6       H      0.492760000000     0.831470000000     0.067640000000     0          
O1       O      0.480600000000     0.893140000000     0.422400000000     0          
O6       O      0.533200000000     0.938600000000     0.352800000000     0          
C1       C      0.601400000000     0.504500000000     0.368900000000     0          
C2       C      0.630800000000     0.502900000000     0.315100000000     0          
C3       C      0.638000000000     0.471800000000     0.322600000000     0          
H1       H      0.624720000000     0.452120000000     0.362150000000     0          
C4       C      0.665200000000     0.469000000000     0.271100000000     0          
H2       H      0.670280000000     0.447380000000     0.276720000000     0          
C5       C      0.684100000000     0.496200000000     0.214300000000     0          
C6       C      0.677400000000     0.527400000000     0.205400000000     0          
H3       H      0.691760000000     0.547420000000     0.167100000000     0          
C7       C      0.648400000000     0.530000000000     0.254500000000     0          
H4       H      0.641370000000     0.550030000000     0.245320000000     0          
C9       C      0.716900000000     0.496000000000     0.165100000000     0          
C10      C      0.715200000000     0.494900000000     0.082800000000     0          
C12      C      0.683100000000     0.493600000000     0.040200000000     0          
H6       H      0.661290000000     0.492760000000     0.067640000000     0          
O1       O      0.587460000000     0.480600000000     0.422400000000     0          
O6       O      0.594600000000     0.533200000000     0.352800000000     0          
C1       C      0.096900000000     0.601400000000     0.368900000000     0          
C2       C      0.127900000000     0.630800000000     0.315100000000     0          
C3       C      0.166200000000     0.638000000000     0.322600000000     0          
H1       H      0.172600000000     0.624720000000     0.362150000000     0          
C4       C      0.196200000000     0.665200000000     0.271100000000     0          
H2       H      0.222900000000     0.670280000000     0.276720000000     0          
C5       C      0.187900000000     0.684100000000     0.214300000000     0          
C6       C      0.150000000000     0.677400000000     0.205400000000     0          
H3       H      0.144340000000     0.691760000000     0.167100000000     0          
C7       C      0.118400000000     0.648400000000     0.254500000000     0          
H4       H      0.091340000000     0.641370000000     0.245320000000     0          
C9       C      0.220900000000     0.716900000000     0.165100000000     0          
C10      C      0.220300000000     0.715200000000     0.082800000000     0          
C12      C      0.189500000000     0.683100000000     0.040200000000     0          
H6       H      0.168530000000     0.661290000000     0.067640000000     0          
O1       O      0.106860000000     0.587460000000     0.422400000000     0          
O6       O      0.061400000000     0.594600000000     0.352800000000     0          


