data_NIXCIJ

_audit_creation_method RASPA-1.0
_audit_creation_date 2020-11-2
_audit_author_name 'Rocio Bueno-Perez'

_cell_length_a    23.0903
_cell_length_b    23.0903
_cell_length_c    18.738
_cell_angle_alpha 90
_cell_angle_beta  90
_cell_angle_gamma 90
_cell_volume      9990.39

_symmetry_cell_setting          triclinic
_symmetry_space_group_name_Hall 'P 1'
_symmetry_space_group_name_H-M  'P 1'
_symmetry_Int_Tables_number     1

_symmetry_equiv_pos_as_xyz 'x,y,z'

loop_
_atom_site_label
_atom_site_type_symbol
_atom_site_fract_x
_atom_site_fract_y
_atom_site_fract_z
_atom_site_charge
F1       F      0.123200000000     0.148700000000     0.203500000000     0          
F2       F      0.140700000000     0.214400000000     0.124500000000     0          
F3       F      0.150700000000     0.124600000000     0.096600000000     0          
O4       O      0.415900000000     0.107500000000     0.136000000000     0          
O5       O      0.343700000000     0.059300000000     0.072000000000     0          
H6       H      0.384400000000     0.452100000000     0.024120000000     0          
H7       H      0.413600000000     0.396900000000     0.997720000000     0          
C8       C      0.239300000000     0.202700000000     0.225600000000     0          
C9       C      0.220800000000     0.165500000000     0.171500000000     0          
C10      C      0.260800000000     0.130500000000     0.136200000000     0          
H11      H      0.248300000000     0.105200000000     0.099300000000     0          
C12      C      0.319100000000     0.132600000000     0.154900000000     0          
C13      C      0.337500000000     0.169600000000     0.208800000000     0          
H14      H      0.377300000000     0.171300000000     0.221500000000     0          
C15      C      0.297300000000     0.204200000000     0.244200000000     0          
C16      C      0.363500000000     0.095700000000     0.118100000000     0          
C17      C      0.158100000000     0.162600000000     0.150000000000     0          
F18      F      0.375200000000     0.234400000000     0.314700000000     0          
F19      F      0.290400000000     0.239600000000     0.362500000000     0          
F20      F      0.313900000000     0.299300000000     0.277900000000     0          
C21      C      0.319000000000     0.244400000000     0.301800000000     0          
F22      F      0.876800000000     0.851300000000     0.203500000000     0          
F23      F      0.859300000000     0.785600000000     0.124500000000     0          
F24      F      0.849300000000     0.875400000000     0.096600000000     0          
O25      O      0.584100000000     0.892500000000     0.136000000000     0          
O26      O      0.656300000000     0.940700000000     0.072000000000     0          
H27      H      0.615600000000     0.547900000000     0.024120000000     0          
H28      H      0.586400000000     0.603100000000     0.997720000000     0          
C29      C      0.760700000000     0.797300000000     0.225600000000     0          
C30      C      0.779200000000     0.834500000000     0.171500000000     0          
C31      C      0.739200000000     0.869500000000     0.136200000000     0          
H32      H      0.751700000000     0.894800000000     0.099300000000     0          
C33      C      0.680900000000     0.867400000000     0.154900000000     0          
C34      C      0.662500000000     0.830400000000     0.208800000000     0          
H35      H      0.622700000000     0.828700000000     0.221500000000     0          
C36      C      0.702700000000     0.795800000000     0.244200000000     0          
C37      C      0.636500000000     0.904300000000     0.118100000000     0          
C38      C      0.841900000000     0.837400000000     0.150000000000     0          
F39      F      0.624800000000     0.765600000000     0.314700000000     0          
F40      F      0.709600000000     0.760400000000     0.362500000000     0          
F41      F      0.686100000000     0.700700000000     0.277900000000     0          
C42      C      0.681000000000     0.755600000000     0.301800000000     0          
F43      F      0.851300000000     0.123200000000     0.703500000000     0          
F44      F      0.785600000000     0.140700000000     0.624500000000     0          
F45      F      0.875400000000     0.150700000000     0.596600000000     0          
O46      O      0.892500000000     0.415900000000     0.636000000000     0          
O47      O      0.940700000000     0.343700000000     0.572000000000     0          
C48      C      0.797300000000     0.239300000000     0.725600000000     0          
C49      C      0.834500000000     0.220800000000     0.671500000000     0          
C50      C      0.869500000000     0.260800000000     0.636200000000     0          
H51      H      0.894800000000     0.248300000000     0.599300000000     0          
C52      C      0.867400000000     0.319100000000     0.654900000000     0          
C53      C      0.830400000000     0.337500000000     0.708800000000     0          
H54      H      0.828700000000     0.377300000000     0.721500000000     0          
C55      C      0.795800000000     0.297300000000     0.744200000000     0          
C56      C      0.904300000000     0.363500000000     0.618100000000     0          
C57      C      0.837400000000     0.158100000000     0.650000000000     0          
F58      F      0.765600000000     0.375200000000     0.814700000000     0          
F59      F      0.760400000000     0.290400000000     0.862500000000     0          
F60      F      0.700700000000     0.313900000000     0.777900000000     0          
C61      C      0.755600000000     0.319000000000     0.801800000000     0          
F62      F      0.148700000000     0.876800000000     0.703500000000     0          
F63      F      0.214400000000     0.859300000000     0.624500000000     0          
F64      F      0.124600000000     0.849300000000     0.596600000000     0          
O65      O      0.107500000000     0.584100000000     0.636000000000     0          
O66      O      0.059300000000     0.656300000000     0.572000000000     0          
C67      C      0.202700000000     0.760700000000     0.725600000000     0          
C68      C      0.165500000000     0.779200000000     0.671500000000     0          
C69      C      0.130500000000     0.739200000000     0.636200000000     0          
H70      H      0.105200000000     0.751700000000     0.599300000000     0          
C71      C      0.132600000000     0.680900000000     0.654900000000     0          
C72      C      0.169600000000     0.662500000000     0.708800000000     0          
H73      H      0.171300000000     0.622700000000     0.721500000000     0          
C74      C      0.204200000000     0.702700000000     0.744200000000     0          
C75      C      0.095700000000     0.636500000000     0.618100000000     0          
C76      C      0.162600000000     0.841900000000     0.650000000000     0          
F77      F      0.234400000000     0.624800000000     0.814700000000     0          
F78      F      0.239600000000     0.709600000000     0.862500000000     0          
F79      F      0.299300000000     0.686100000000     0.777900000000     0          
C80      C      0.244400000000     0.681000000000     0.801800000000     0          
F81      F      0.876800000000     0.148700000000     0.796500000000     0          
F82      F      0.859300000000     0.214400000000     0.875500000000     0          
F83      F      0.849300000000     0.124600000000     0.903400000000     0          
O84      O      0.584100000000     0.107500000000     0.864000000000     0          
O85      O      0.656300000000     0.059300000000     0.928000000000     0          
N86      N      0.588200000000     0.434900000000     0.000680000000     0          
H87      H      0.615600000000     0.452100000000     0.975880000000     0          
C88      C      0.760700000000     0.202700000000     0.774400000000     0          
C89      C      0.779200000000     0.165500000000     0.828500000000     0          
C90      C      0.739200000000     0.130500000000     0.863800000000     0          
H91      H      0.751700000000     0.105200000000     0.900700000000     0          
C92      C      0.680900000000     0.132600000000     0.845100000000     0          
C93      C      0.662500000000     0.169600000000     0.791200000000     0          
H94      H      0.622700000000     0.171300000000     0.778500000000     0          
C95      C      0.702700000000     0.204200000000     0.755800000000     0          
C96      C      0.636500000000     0.095700000000     0.881900000000     0          
C97      C      0.841900000000     0.162600000000     0.850000000000     0          
C98      C      0.544400000000     0.470530000000     0.001120000000     0          
F99      F      0.624800000000     0.234400000000     0.685300000000     0          
F100     F      0.709600000000     0.239600000000     0.637500000000     0          
F101     F      0.686100000000     0.299300000000     0.722100000000     0          
C102     C      0.681000000000     0.244400000000     0.698200000000     0          
F103     F      0.123200000000     0.851300000000     0.796500000000     0          
F104     F      0.140700000000     0.785600000000     0.875500000000     0          
F105     F      0.150700000000     0.875400000000     0.903400000000     0          
O106     O      0.415900000000     0.892500000000     0.864000000000     0          
O107     O      0.343700000000     0.940700000000     0.928000000000     0          
H108     H      0.384400000000     0.547900000000     0.975880000000     0          
C109     C      0.239300000000     0.797300000000     0.774400000000     0          
C110     C      0.220800000000     0.834500000000     0.828500000000     0          
C111     C      0.260800000000     0.869500000000     0.863800000000     0          
H112     H      0.248300000000     0.894800000000     0.900700000000     0          
C113     C      0.319100000000     0.867400000000     0.845100000000     0          
C114     C      0.337500000000     0.830400000000     0.791200000000     0          
H115     H      0.377300000000     0.828700000000     0.778500000000     0          
C116     C      0.297300000000     0.795800000000     0.755800000000     0          
C117     C      0.363500000000     0.904300000000     0.881900000000     0          
C118     C      0.158100000000     0.837400000000     0.850000000000     0          
F119     F      0.375200000000     0.765600000000     0.685300000000     0          
F120     F      0.290400000000     0.760400000000     0.637500000000     0          
F121     F      0.313900000000     0.700700000000     0.722100000000     0          
C122     C      0.319000000000     0.755600000000     0.698200000000     0          
F123     F      0.148700000000     0.123200000000     0.296500000000     0          
F124     F      0.214400000000     0.140700000000     0.375500000000     0          
F125     F      0.124600000000     0.150700000000     0.403400000000     0          
O126     O      0.107500000000     0.415900000000     0.364000000000     0          
O127     O      0.059300000000     0.343700000000     0.428000000000     0          
N128     N      0.434900000000     0.411800000000     0.500680000000     0          
H129     H      0.452100000000     0.384400000000     0.475880000000     0          
H130     H      0.396900000000     0.413600000000     0.502280000000     0          
C131     C      0.202700000000     0.239300000000     0.274400000000     0          
C132     C      0.165500000000     0.220800000000     0.328500000000     0          
C133     C      0.130500000000     0.260800000000     0.363800000000     0          
H134     H      0.105200000000     0.248300000000     0.400700000000     0          
C135     C      0.132600000000     0.319100000000     0.345100000000     0          
C136     C      0.169600000000     0.337500000000     0.291200000000     0          
H137     H      0.171300000000     0.377300000000     0.278500000000     0          
C138     C      0.204200000000     0.297300000000     0.255800000000     0          
C139     C      0.095700000000     0.363500000000     0.381900000000     0          
C140     C      0.162600000000     0.158100000000     0.350000000000     0          
C141     C      0.470530000000     0.455600000000     0.501120000000     0          
F142     F      0.234400000000     0.375200000000     0.185300000000     0          
F143     F      0.239600000000     0.290400000000     0.137500000000     0          
F144     F      0.299300000000     0.313900000000     0.222100000000     0          
C145     C      0.244400000000     0.319000000000     0.198200000000     0          
F146     F      0.851300000000     0.876800000000     0.296500000000     0          
F147     F      0.785600000000     0.859300000000     0.375500000000     0          
F148     F      0.875400000000     0.849300000000     0.403400000000     0          
O149     O      0.892500000000     0.584100000000     0.364000000000     0          
O150     O      0.940700000000     0.656300000000     0.428000000000     0          
N151     N      0.565100000000     0.588200000000     0.500680000000     0          
H152     H      0.547900000000     0.615600000000     0.475880000000     0          
H153     H      0.603100000000     0.586400000000     0.502280000000     0          
C154     C      0.797300000000     0.760700000000     0.274400000000     0          
C155     C      0.834500000000     0.779200000000     0.328500000000     0          
C156     C      0.869500000000     0.739200000000     0.363800000000     0          
H157     H      0.894800000000     0.751700000000     0.400700000000     0          
C158     C      0.867400000000     0.680900000000     0.345100000000     0          
C159     C      0.830400000000     0.662500000000     0.291200000000     0          
H160     H      0.828700000000     0.622700000000     0.278500000000     0          
C161     C      0.795800000000     0.702700000000     0.255800000000     0          
C162     C      0.904300000000     0.636500000000     0.381900000000     0          
C163     C      0.837400000000     0.841900000000     0.350000000000     0          
C164     C      0.529470000000     0.544400000000     0.501120000000     0          
F165     F      0.765600000000     0.624800000000     0.185300000000     0          
F166     F      0.760400000000     0.709600000000     0.137500000000     0          
F167     F      0.700700000000     0.686100000000     0.222100000000     0          
H168     H      0.835900000000     0.819000000000     0.341300000000     0          
C169     C      0.755600000000     0.681000000000     0.198200000000     0          
F170     F      0.876800000000     0.851300000000     0.796500000000     0          
F171     F      0.859300000000     0.785600000000     0.875500000000     0          
F172     F      0.849300000000     0.875400000000     0.903400000000     0          
O173     O      0.584100000000     0.892500000000     0.864000000000     0          
O174     O      0.656300000000     0.940700000000     0.928000000000     0          
N175     N      0.588200000000     0.565100000000     0.000680000000     0          
H176     H      0.615600000000     0.547900000000     0.975880000000     0          
C177     C      0.760700000000     0.797300000000     0.774400000000     0          
C178     C      0.779200000000     0.834500000000     0.828500000000     0          
C179     C      0.739200000000     0.869500000000     0.863800000000     0          
H180     H      0.751700000000     0.894800000000     0.900700000000     0          
C181     C      0.680900000000     0.867400000000     0.845100000000     0          
C182     C      0.662500000000     0.830400000000     0.791200000000     0          
H183     H      0.622700000000     0.828700000000     0.778500000000     0          
C184     C      0.702700000000     0.795800000000     0.755800000000     0          
C185     C      0.636500000000     0.904300000000     0.881900000000     0          
C186     C      0.841900000000     0.837400000000     0.850000000000     0          
C187     C      0.544400000000     0.529470000000     0.001120000000     0          
F188     F      0.624800000000     0.765600000000     0.685300000000     0          
F189     F      0.709600000000     0.760400000000     0.637500000000     0          
F190     F      0.686100000000     0.700700000000     0.722100000000     0          
C191     C      0.681000000000     0.755600000000     0.698200000000     0          
F192     F      0.123200000000     0.148700000000     0.796500000000     0          
F193     F      0.140700000000     0.214400000000     0.875500000000     0          
F194     F      0.150700000000     0.124600000000     0.903400000000     0          
O195     O      0.415900000000     0.107500000000     0.864000000000     0          
O196     O      0.343700000000     0.059300000000     0.928000000000     0          
N197     N      0.411800000000     0.434900000000     0.000680000000     0          
H198     H      0.384400000000     0.452100000000     0.975880000000     0          
C199     C      0.239300000000     0.202700000000     0.774400000000     0          
C200     C      0.220800000000     0.165500000000     0.828500000000     0          
C201     C      0.260800000000     0.130500000000     0.863800000000     0          
H202     H      0.248300000000     0.105200000000     0.900700000000     0          
C203     C      0.319100000000     0.132600000000     0.845100000000     0          
C204     C      0.337500000000     0.169600000000     0.791200000000     0          
H205     H      0.377300000000     0.171300000000     0.778500000000     0          
C206     C      0.297300000000     0.204200000000     0.755800000000     0          
C207     C      0.363500000000     0.095700000000     0.881900000000     0          
C208     C      0.158100000000     0.162600000000     0.850000000000     0          
C209     C      0.455600000000     0.470530000000     0.001120000000     0          
F210     F      0.375200000000     0.234400000000     0.685300000000     0          
F211     F      0.290400000000     0.239600000000     0.637500000000     0          
F212     F      0.313900000000     0.299300000000     0.722100000000     0          
C213     C      0.319000000000     0.244400000000     0.698200000000     0          
F214     F      0.148700000000     0.876800000000     0.296500000000     0          
F215     F      0.214400000000     0.859300000000     0.375500000000     0          
F216     F      0.124600000000     0.849300000000     0.403400000000     0          
O217     O      0.107500000000     0.584100000000     0.364000000000     0          
O218     O      0.059300000000     0.656300000000     0.428000000000     0          
N219     N      0.434900000000     0.588200000000     0.500680000000     0          
H220     H      0.452100000000     0.615600000000     0.475880000000     0          
H221     H      0.396900000000     0.586400000000     0.502280000000     0          
C222     C      0.202700000000     0.760700000000     0.274400000000     0          
C223     C      0.165500000000     0.779200000000     0.328500000000     0          
C224     C      0.130500000000     0.739200000000     0.363800000000     0          
H225     H      0.105200000000     0.751700000000     0.400700000000     0          
C226     C      0.132600000000     0.680900000000     0.345100000000     0          
C227     C      0.169600000000     0.662500000000     0.291200000000     0          
H228     H      0.171300000000     0.622700000000     0.278500000000     0          
C229     C      0.204200000000     0.702700000000     0.255800000000     0          
C230     C      0.095700000000     0.636500000000     0.381900000000     0          
C231     C      0.162600000000     0.841900000000     0.350000000000     0          
C232     C      0.470530000000     0.544400000000     0.501120000000     0          
F233     F      0.234400000000     0.624800000000     0.185300000000     0          
F234     F      0.239600000000     0.709600000000     0.137500000000     0          
F235     F      0.299300000000     0.686100000000     0.222100000000     0          
C236     C      0.244400000000     0.681000000000     0.198200000000     0          
F237     F      0.851300000000     0.123200000000     0.296500000000     0          
F238     F      0.785600000000     0.140700000000     0.375500000000     0          
F239     F      0.875400000000     0.150700000000     0.403400000000     0          
O240     O      0.892500000000     0.415900000000     0.364000000000     0          
O241     O      0.940700000000     0.343700000000     0.428000000000     0          
N242     N      0.565100000000     0.411800000000     0.500680000000     0          
H243     H      0.547900000000     0.384400000000     0.475880000000     0          
H244     H      0.603100000000     0.413600000000     0.502280000000     0          
C245     C      0.797300000000     0.239300000000     0.274400000000     0          
C246     C      0.834500000000     0.220800000000     0.328500000000     0          
C247     C      0.869500000000     0.260800000000     0.363800000000     0          
H248     H      0.894800000000     0.248300000000     0.400700000000     0          
C249     C      0.867400000000     0.319100000000     0.345100000000     0          
C250     C      0.830400000000     0.337500000000     0.291200000000     0          
H251     H      0.828700000000     0.377300000000     0.278500000000     0          
C252     C      0.795800000000     0.297300000000     0.255800000000     0          
C253     C      0.904300000000     0.363500000000     0.381900000000     0          
C254     C      0.837400000000     0.158100000000     0.350000000000     0          
C255     C      0.529470000000     0.455600000000     0.501120000000     0          
F256     F      0.765600000000     0.375200000000     0.185300000000     0          
F257     F      0.760400000000     0.290400000000     0.137500000000     0          
F258     F      0.700700000000     0.313900000000     0.222100000000     0          
C259     C      0.755600000000     0.319000000000     0.198200000000     0          
F260     F      0.123200000000     0.851300000000     0.203500000000     0          
F261     F      0.140700000000     0.785600000000     0.124500000000     0          
F262     F      0.150700000000     0.875400000000     0.096600000000     0          
O263     O      0.415900000000     0.892500000000     0.136000000000     0          
O264     O      0.343700000000     0.940700000000     0.072000000000     0          
N265     N      0.411800000000     0.565100000000     0.999320000000     0          
H266     H      0.384400000000     0.547900000000     0.024120000000     0          
H267     H      0.413600000000     0.603100000000     0.997720000000     0          
C268     C      0.239300000000     0.797300000000     0.225600000000     0          
C269     C      0.220800000000     0.834500000000     0.171500000000     0          
C270     C      0.260800000000     0.869500000000     0.136200000000     0          
H271     H      0.248300000000     0.894800000000     0.099300000000     0          
C272     C      0.319100000000     0.867400000000     0.154900000000     0          
C273     C      0.337500000000     0.830400000000     0.208800000000     0          
H274     H      0.377300000000     0.828700000000     0.221500000000     0          
C275     C      0.297300000000     0.795800000000     0.244200000000     0          
C276     C      0.363500000000     0.904300000000     0.118100000000     0          
C277     C      0.158100000000     0.837400000000     0.150000000000     0          
C278     C      0.455600000000     0.529470000000     0.998880000000     0          
F279     F      0.375200000000     0.765600000000     0.314700000000     0          
F280     F      0.290400000000     0.760400000000     0.362500000000     0          
F281     F      0.313900000000     0.700700000000     0.277900000000     0          
C282     C      0.319000000000     0.755600000000     0.301800000000     0          
F283     F      0.876800000000     0.148700000000     0.203500000000     0          
F284     F      0.859300000000     0.214400000000     0.124500000000     0          
F285     F      0.849300000000     0.124600000000     0.096600000000     0          
O286     O      0.584100000000     0.107500000000     0.136000000000     0          
O287     O      0.656300000000     0.059300000000     0.072000000000     0          
H288     H      0.615600000000     0.452100000000     0.024120000000     0          
H289     H      0.586400000000     0.396900000000     0.997720000000     0          
C290     C      0.760700000000     0.202700000000     0.225600000000     0          
C291     C      0.779200000000     0.165500000000     0.171500000000     0          
C292     C      0.739200000000     0.130500000000     0.136200000000     0          
H293     H      0.751700000000     0.105200000000     0.099300000000     0          
C294     C      0.680900000000     0.132600000000     0.154900000000     0          
C295     C      0.662500000000     0.169600000000     0.208800000000     0          
H296     H      0.622700000000     0.171300000000     0.221500000000     0          
C297     C      0.702700000000     0.204200000000     0.244200000000     0          
C298     C      0.636500000000     0.095700000000     0.118100000000     0          
C299     C      0.841900000000     0.162600000000     0.150000000000     0          
F300     F      0.624800000000     0.234400000000     0.314700000000     0          
F301     F      0.709600000000     0.239600000000     0.362500000000     0          
F302     F      0.686100000000     0.299300000000     0.277900000000     0          
C303     C      0.681000000000     0.244400000000     0.301800000000     0          
F304     F      0.851300000000     0.876800000000     0.703500000000     0          
F305     F      0.785600000000     0.859300000000     0.624500000000     0          
F306     F      0.875400000000     0.849300000000     0.596600000000     0          
O307     O      0.892500000000     0.584100000000     0.636000000000     0          
O308     O      0.940700000000     0.656300000000     0.572000000000     0          
C309     C      0.797300000000     0.760700000000     0.725600000000     0          
C310     C      0.834500000000     0.779200000000     0.671500000000     0          
C311     C      0.869500000000     0.739200000000     0.636200000000     0          
H312     H      0.894800000000     0.751700000000     0.599300000000     0          
C313     C      0.867400000000     0.680900000000     0.654900000000     0          
C314     C      0.830400000000     0.662500000000     0.708800000000     0          
H315     H      0.828700000000     0.622700000000     0.721500000000     0          
C316     C      0.795800000000     0.702700000000     0.744200000000     0          
C317     C      0.904300000000     0.636500000000     0.618100000000     0          
C318     C      0.837400000000     0.841900000000     0.650000000000     0          
F319     F      0.765600000000     0.624800000000     0.814700000000     0          
F320     F      0.760400000000     0.709600000000     0.862500000000     0          
F321     F      0.700700000000     0.686100000000     0.777900000000     0          
C322     C      0.755600000000     0.681000000000     0.801800000000     0          
F323     F      0.148700000000     0.123200000000     0.703500000000     0          
F324     F      0.214400000000     0.140700000000     0.624500000000     0          
F325     F      0.124600000000     0.150700000000     0.596600000000     0          
O326     O      0.107500000000     0.415900000000     0.636000000000     0          
O327     O      0.059300000000     0.343700000000     0.572000000000     0          
C328     C      0.202700000000     0.239300000000     0.725600000000     0          
C329     C      0.165500000000     0.220800000000     0.671500000000     0          
C330     C      0.130500000000     0.260800000000     0.636200000000     0          
H331     H      0.105200000000     0.248300000000     0.599300000000     0          
C332     C      0.132600000000     0.319100000000     0.654900000000     0          
C333     C      0.169600000000     0.337500000000     0.708800000000     0          
H334     H      0.171300000000     0.377300000000     0.721500000000     0          
C335     C      0.204200000000     0.297300000000     0.744200000000     0          
C336     C      0.095700000000     0.363500000000     0.618100000000     0          
C337     C      0.162600000000     0.158100000000     0.650000000000     0          
F338     F      0.234400000000     0.375200000000     0.814700000000     0          
F339     F      0.239600000000     0.290400000000     0.862500000000     0          
F340     F      0.299300000000     0.313900000000     0.777900000000     0          
C341     C      0.244400000000     0.319000000000     0.801800000000     0          
I342     I      0.595300000000     0.161400000000     0.500000000000     0          
I343     I      0.404700000000     0.838600000000     0.500000000000     0          
I344     I      0.838600000000     0.595300000000     0.000000000000     0          
I345     I      0.161400000000     0.404700000000     0.000000000000     0          
I346     I      0.404700000000     0.161400000000     0.500000000000     0          
I347     I      0.595300000000     0.838600000000     0.500000000000     0          
I348     I      0.161400000000     0.595300000000     0.000000000000     0          
I349     I      0.838600000000     0.404700000000     0.000000000000     0          
Zr350    Zr     0.500000000000     0.075390000000     0.093120000000     0          
O351     O      0.500000000000     0.049300000000     0.206800000000     0          
O352     O      0.500000000000     0.167500000000     0.060200000000     0          
C353     C      0.500000000000     0.052240000000     0.349000000000     0          
C354     C      0.500000000000     0.284500000000     0.064300000000     0          
H355     H      0.500000000000     0.263900000000     0.108200000000     0          
C356     C      0.500000000000     0.345000000000     0.064400000000     0          
H357     H      0.500000000000     0.365500000000     0.108300000000     0          
H358     H      0.500000000000     0.087900000000     0.323700000000     0          
C359     C      0.500000000000     0.052200000000     0.423300000000     0          
N360     N      0.500000000000     0.947800000000     0.423300000000     0          
Zr361    Zr     0.500000000000     0.924610000000     0.093120000000     0          
O362     O      0.500000000000     0.950700000000     0.206800000000     0          
O363     O      0.500000000000     0.832500000000     0.060200000000     0          
C364     C      0.500000000000     0.947760000000     0.349000000000     0          
C365     C      0.500000000000     0.715500000000     0.064300000000     0          
H366     H      0.500000000000     0.736100000000     0.108200000000     0          
C367     C      0.500000000000     0.655000000000     0.064400000000     0          
H368     H      0.500000000000     0.634500000000     0.108300000000     0          
H369     H      0.500000000000     0.912100000000     0.323700000000     0          
Zr372    Zr     0.924610000000     0.500000000000     0.593120000000     0          
O373     O      0.950700000000     0.500000000000     0.706800000000     0          
O374     O      0.832500000000     0.500000000000     0.560200000000     0          
C375     C      0.947760000000     0.500000000000     0.849000000000     0          
C376     C      0.715500000000     0.500000000000     0.564300000000     0          
H377     H      0.736100000000     0.500000000000     0.608200000000     0          
C378     C      0.655000000000     0.500000000000     0.564400000000     0          
H379     H      0.634500000000     0.500000000000     0.608300000000     0          
H380     H      0.912100000000     0.500000000000     0.823700000000     0          
C381     C      0.947800000000     0.500000000000     0.923300000000     0          
N382     N      0.052200000000     0.500000000000     0.923300000000     0          
Zr383    Zr     0.075390000000     0.500000000000     0.593120000000     0          
O384     O      0.049300000000     0.500000000000     0.706800000000     0          
O385     O      0.167500000000     0.500000000000     0.560200000000     0          
C386     C      0.052240000000     0.500000000000     0.849000000000     0          
C387     C      0.284500000000     0.500000000000     0.564300000000     0          
H388     H      0.263900000000     0.500000000000     0.608200000000     0          
C389     C      0.345000000000     0.500000000000     0.564400000000     0          
H390     H      0.365500000000     0.500000000000     0.608300000000     0          
H391     H      0.087900000000     0.500000000000     0.823700000000     0          
Zr394    Zr     0.500000000000     0.075390000000     0.906880000000     0          
O395     O      0.500000000000     0.049300000000     0.793200000000     0          
O396     O      0.500000000000     0.167500000000     0.939800000000     0          
C397     C      0.500000000000     0.052240000000     0.651000000000     0          
C398     C      0.500000000000     0.284500000000     0.935700000000     0          
H399     H      0.500000000000     0.263900000000     0.891800000000     0          
C400     C      0.500000000000     0.345000000000     0.935600000000     0          
H401     H      0.500000000000     0.365500000000     0.891700000000     0          
H402     H      0.500000000000     0.087900000000     0.676300000000     0          
C403     C      0.500000000000     0.052200000000     0.576700000000     0          
N404     N      0.500000000000     0.947800000000     0.576700000000     0          
Zr405    Zr     0.500000000000     0.924610000000     0.906880000000     0          
O406     O      0.500000000000     0.950700000000     0.793200000000     0          
O407     O      0.500000000000     0.832500000000     0.939800000000     0          
C408     C      0.500000000000     0.947760000000     0.651000000000     0          
C409     C      0.500000000000     0.715500000000     0.935700000000     0          
H410     H      0.500000000000     0.736100000000     0.891800000000     0          
C411     C      0.500000000000     0.655000000000     0.935600000000     0          
H412     H      0.500000000000     0.634500000000     0.891700000000     0          
H413     H      0.500000000000     0.912100000000     0.676300000000     0          
Zr416    Zr     0.075390000000     0.500000000000     0.406880000000     0          
O417     O      0.049300000000     0.500000000000     0.293200000000     0          
O418     O      0.167500000000     0.500000000000     0.439800000000     0          
C419     C      0.052240000000     0.500000000000     0.151000000000     0          
C420     C      0.284500000000     0.500000000000     0.435700000000     0          
H421     H      0.263900000000     0.500000000000     0.391800000000     0          
C422     C      0.345000000000     0.500000000000     0.435600000000     0          
H423     H      0.365500000000     0.500000000000     0.391700000000     0          
H424     H      0.087900000000     0.500000000000     0.176300000000     0          
C425     C      0.052200000000     0.500000000000     0.076700000000     0          
N426     N      0.947800000000     0.500000000000     0.076700000000     0          
Zr427    Zr     0.924610000000     0.500000000000     0.406880000000     0          
O428     O      0.950700000000     0.500000000000     0.293200000000     0          
O429     O      0.832500000000     0.500000000000     0.439800000000     0          
C430     C      0.947760000000     0.500000000000     0.151000000000     0          
C431     C      0.715500000000     0.500000000000     0.435700000000     0          
H432     H      0.736100000000     0.500000000000     0.391800000000     0          
C433     C      0.655000000000     0.500000000000     0.435600000000     0          
H434     H      0.634500000000     0.500000000000     0.391700000000     0          
H435     H      0.912100000000     0.500000000000     0.176300000000     0          
Zr438    Zr     0.392510000000     0.000000000000     0.000000000000     0          
Zr439    Zr     0.607490000000     0.000000000000     0.000000000000     0          
Zr440    Zr     0.000000000000     0.392510000000     0.500000000000     0          
Zr441    Zr     0.000000000000     0.607490000000     0.500000000000     0          
Cu442    Cu     0.500000000000     0.103000000000     0.500000000000     0          
Cu443    Cu     0.500000000000     0.897000000000     0.500000000000     0          
Cu444    Cu     0.897000000000     0.500000000000     0.000000000000     0          
Cu445    Cu     0.103000000000     0.500000000000     0.000000000000     0          
O446     O      0.445800000000     0.075400000000     0.000000000000     0          
O447     O      0.554200000000     0.924600000000     0.000000000000     0          
O448     O      0.924600000000     0.445800000000     0.500000000000     0          
O449     O      0.075400000000     0.554200000000     0.500000000000     0          
O450     O      0.554200000000     0.075400000000     0.000000000000     0          
O451     O      0.445800000000     0.924600000000     0.000000000000     0          
O452     O      0.075400000000     0.445800000000     0.500000000000     0          
O453     O      0.924600000000     0.554200000000     0.500000000000     0          
O454     O      0.553900000000     0.000000000000     0.090900000000     0          
O455     O      0.446100000000     0.000000000000     0.090900000000     0          
O456     O      0.000000000000     0.553900000000     0.590900000000     0          
O457     O      0.000000000000     0.446100000000     0.590900000000     0          
O458     O      0.446100000000     0.000000000000     0.909100000000     0          
O459     O      0.553900000000     0.000000000000     0.909100000000     0          
O460     O      0.000000000000     0.553900000000     0.409100000000     0          
O461     O      0.000000000000     0.446100000000     0.409100000000     0          
C462     C      0.500000000000     0.000000000000     0.232700000000     0          
C463     C      0.500000000000     0.000000000000     0.312000000000     0          
C464     C      0.500000000000     0.000000000000     0.460200000000     0          
C465     C      0.000000000000     0.500000000000     0.732700000000     0          
C466     C      0.000000000000     0.500000000000     0.812000000000     0          
C467     C      0.000000000000     0.500000000000     0.960200000000     0          
C468     C      0.500000000000     0.000000000000     0.767300000000     0          
C469     C      0.500000000000     0.000000000000     0.688000000000     0          
C470     C      0.500000000000     0.000000000000     0.539800000000     0          
C471     C      0.000000000000     0.500000000000     0.267300000000     0          
C472     C      0.000000000000     0.500000000000     0.188000000000     0          
C473     C      0.000000000000     0.500000000000     0.039800000000     0          
C474     C      0.500000000000     0.189900000000     0.000000000000     0          
C475     C      0.500000000000     0.254600000000     0.000000000000     0          
C476     C      0.500000000000     0.375200000000     0.000000000000     0          
C477     C      0.500000000000     0.440000000000     0.000000000000     0          
C478     C      0.500000000000     0.810100000000     0.000000000000     0          
C479     C      0.500000000000     0.745400000000     0.000000000000     0          
C480     C      0.500000000000     0.624800000000     0.000000000000     0          
C481     C      0.500000000000     0.560000000000     0.000000000000     0          
C482     C      0.810100000000     0.500000000000     0.500000000000     0          
C483     C      0.745400000000     0.500000000000     0.500000000000     0          
C484     C      0.624800000000     0.500000000000     0.500000000000     0          
C485     C      0.560000000000     0.500000000000     0.500000000000     0          
C486     C      0.189900000000     0.500000000000     0.500000000000     0          
C487     C      0.254600000000     0.500000000000     0.500000000000     0          
C488     C      0.375200000000     0.500000000000     0.500000000000     0          
C489     C      0.440000000000     0.500000000000     0.500000000000     0          


