data_PAZDUS

_audit_creation_method RASPA-1.0
_audit_creation_date 2020-4-3
_audit_author_name 'Rocio Bueno-Perez'

_cell_length_a    18.95
_cell_length_b    18.95
_cell_length_c    43.979
_cell_angle_alpha 90
_cell_angle_beta  90
_cell_angle_gamma 120
_cell_volume      13677.1

_symmetry_cell_setting          hexagonal
_symmetry_space_group_name_Hall 'P 1'
_symmetry_space_group_name_H-M  'P 1'
_symmetry_Int_Tables_number     1

_symmetry_equiv_pos_as_xyz 'x,y,z'

loop_
_atom_site_label
_atom_site_type_symbol
_atom_site_fract_x
_atom_site_fract_y
_atom_site_fract_z
_atom_site_charge
O1       O      0.711100000000     0.556000000000     0.345200000000     0          
O2       O      0.629200000000     0.516200000000     0.303000000000     0          
O3       O      0.539400000000     0.339200000000     0.392800000000     0          
C4       C      0.487400000000     0.385700000000     0.445500000000     0          
N5       N      0.462800000000     0.410100000000     0.471700000000     0          
C6       C      0.670900000000     0.567800000000     0.324100000000     0          
C7       C      0.709900000000     0.702500000000     0.347500000000     0          
C8       C      0.637100000000     0.666300000000     0.299900000000     0          
N9       N      0.638300000000     0.740400000000     0.299600000000     0          
N10      N      0.711200000000     0.776700000000     0.347400000000     0          
C11      C      0.672600000000     0.646400000000     0.323900000000     0          
C12      C      0.675100000000     0.797700000000     0.323500000000     0          
H13      H      0.445290000000     0.323690000000     0.434840000000     0          
H14      H      0.739470000000     0.686950000000     0.366980000000     0          
H15      H      0.607010000000     0.621110000000     0.280480000000     0          
Zr16     Zr     0.550600000000     0.275300000000     0.361300000000     0          
O17      O      0.536000000000     0.268000000000     0.296100000000     0          
Zr18     Zr     0.607800000000     0.392200000000     0.289800000000     0          
C19      C      0.589600000000     0.410400000000     0.404000000000     0          
C20      C      0.563500000000     0.436500000000     0.432000000000     0          
C21      C      0.513300000000     0.486700000000     0.485700000000     0          
O22      O      0.602800000000     0.397200000000     0.348200000000     0          
O23      O      0.646800000000     0.473000000000     0.250000000000     0          
O24      O      0.666670000000     0.333330000000     0.375000000000     0          
O25      O      0.666670000000     0.333330000000     0.277000000000     0          
O1       O      0.155100000000     0.711100000000     0.845200000000     0          
O2       O      0.113000000000     0.629200000000     0.803000000000     0          
O3       O      0.200200000000     0.539400000000     0.892800000000     0          
C4       C      0.101700000000     0.487400000000     0.945500000000     0          
N5       N      0.052700000000     0.462800000000     0.971700000000     0          
C6       C      0.103100000000     0.670900000000     0.824100000000     0          
C7       C      0.007400000000     0.709900000000     0.847500000000     0          
C8       C      0.970800000000     0.637100000000     0.799900000000     0          
N9       N      0.897900000000     0.638300000000     0.799600000000     0          
N10      N      0.934500000000     0.711200000000     0.847400000000     0          
C11      C      0.026200000000     0.672600000000     0.823900000000     0          
C12      C      0.877400000000     0.675100000000     0.823500000000     0          
H13      H      0.121600000000     0.445290000000     0.934840000000     0          
H14      H      0.052520000000     0.739470000000     0.866980000000     0          
H15      H      0.985900000000     0.607010000000     0.780480000000     0          
Zr16     Zr     0.275300000000     0.550600000000     0.861300000000     0          
O17      O      0.268000000000     0.536000000000     0.796100000000     0          
Zr18     Zr     0.215600000000     0.607800000000     0.789800000000     0          
C19      C      0.179200000000     0.589600000000     0.904000000000     0          
C20      C      0.127000000000     0.563500000000     0.932000000000     0          
C21      C      0.026600000000     0.513300000000     0.985700000000     0          
O22      O      0.205600000000     0.602800000000     0.848200000000     0          
O23      O      0.173800000000     0.646800000000     0.750000000000     0          
O24      O      0.333340000000     0.666670000000     0.875000000000     0          
O25      O      0.333340000000     0.666670000000     0.777000000000     0          
O1       O      0.444000000000     0.155100000000     0.345200000000     0          
O2       O      0.483800000000     0.113000000000     0.303000000000     0          
O3       O      0.660800000000     0.200200000000     0.392800000000     0          
C4       C      0.614300000000     0.101700000000     0.445500000000     0          
N5       N      0.589900000000     0.052700000000     0.471700000000     0          
C6       C      0.432200000000     0.103100000000     0.324100000000     0          
C7       C      0.297500000000     0.007400000000     0.347500000000     0          
C8       C      0.333700000000     0.970800000000     0.299900000000     0          
N9       N      0.259600000000     0.897900000000     0.299600000000     0          
N10      N      0.223300000000     0.934500000000     0.347400000000     0          
C11      C      0.353600000000     0.026200000000     0.323900000000     0          
C12      C      0.202300000000     0.877400000000     0.323500000000     0          
H13      H      0.676310000000     0.121600000000     0.434840000000     0          
H14      H      0.313050000000     0.052520000000     0.366980000000     0          
H15      H      0.378890000000     0.985900000000     0.280480000000     0          
Zr16     Zr     0.724700000000     0.275300000000     0.361300000000     0          
O17      O      0.732000000000     0.268000000000     0.296100000000     0          
Zr18     Zr     0.607800000000     0.215600000000     0.289800000000     0          
C19      C      0.589600000000     0.179200000000     0.404000000000     0          
C20      C      0.563500000000     0.127000000000     0.432000000000     0          
C21      C      0.513300000000     0.026600000000     0.485700000000     0          
O22      O      0.602800000000     0.205600000000     0.348200000000     0          
O23      O      0.527000000000     0.173800000000     0.250000000000     0          
O1       O      0.288900000000     0.444000000000     0.845200000000     0          
O2       O      0.370800000000     0.483800000000     0.803000000000     0          
O3       O      0.460600000000     0.660800000000     0.892800000000     0          
C4       C      0.512600000000     0.614300000000     0.945500000000     0          
N5       N      0.537200000000     0.589900000000     0.971700000000     0          
C6       C      0.329100000000     0.432200000000     0.824100000000     0          
C7       C      0.290100000000     0.297500000000     0.847500000000     0          
C8       C      0.362900000000     0.333700000000     0.799900000000     0          
N9       N      0.361700000000     0.259600000000     0.799600000000     0          
N10      N      0.288800000000     0.223300000000     0.847400000000     0          
C11      C      0.327400000000     0.353600000000     0.823900000000     0          
C12      C      0.324900000000     0.202300000000     0.823500000000     0          
H13      H      0.554710000000     0.676310000000     0.934840000000     0          
H14      H      0.260530000000     0.313050000000     0.866980000000     0          
H15      H      0.392990000000     0.378890000000     0.780480000000     0          
Zr16     Zr     0.449400000000     0.724700000000     0.861300000000     0          
O17      O      0.464000000000     0.732000000000     0.796100000000     0          
Zr18     Zr     0.392200000000     0.607800000000     0.789800000000     0          
C19      C      0.410400000000     0.589600000000     0.904000000000     0          
C20      C      0.436500000000     0.563500000000     0.932000000000     0          
C21      C      0.486700000000     0.513300000000     0.985700000000     0          
O22      O      0.397200000000     0.602800000000     0.848200000000     0          
O23      O      0.353200000000     0.527000000000     0.750000000000     0          
O1       O      0.844900000000     0.288900000000     0.345200000000     0          
O2       O      0.887000000000     0.370800000000     0.303000000000     0          
O3       O      0.799800000000     0.460600000000     0.392800000000     0          
C4       C      0.898300000000     0.512600000000     0.445500000000     0          
N5       N      0.947300000000     0.537200000000     0.471700000000     0          
C6       C      0.896900000000     0.329100000000     0.324100000000     0          
C7       C      0.992600000000     0.290100000000     0.347500000000     0          
C8       C      0.029200000000     0.362900000000     0.299900000000     0          
N9       N      0.102100000000     0.361700000000     0.299600000000     0          
N10      N      0.065500000000     0.288800000000     0.347400000000     0          
C11      C      0.973800000000     0.327400000000     0.323900000000     0          
C12      C      0.122600000000     0.324900000000     0.323500000000     0          
H13      H      0.878400000000     0.554710000000     0.434840000000     0          
H14      H      0.947480000000     0.260530000000     0.366980000000     0          
H15      H      0.014100000000     0.392990000000     0.280480000000     0          
Zr16     Zr     0.724700000000     0.449400000000     0.361300000000     0          
O17      O      0.732000000000     0.464000000000     0.296100000000     0          
Zr18     Zr     0.784400000000     0.392200000000     0.289800000000     0          
C19      C      0.820800000000     0.410400000000     0.404000000000     0          
C20      C      0.873000000000     0.436500000000     0.432000000000     0          
C21      C      0.973400000000     0.486700000000     0.485700000000     0          
O22      O      0.794400000000     0.397200000000     0.348200000000     0          
O23      O      0.826200000000     0.353200000000     0.250000000000     0          
O1       O      0.556000000000     0.844900000000     0.845200000000     0          
O2       O      0.516200000000     0.887000000000     0.803000000000     0          
O3       O      0.339200000000     0.799800000000     0.892800000000     0          
C4       C      0.385700000000     0.898300000000     0.945500000000     0          
N5       N      0.410100000000     0.947300000000     0.971700000000     0          
C6       C      0.567800000000     0.896900000000     0.824100000000     0          
C7       C      0.702500000000     0.992600000000     0.847500000000     0          
C8       C      0.666300000000     0.029200000000     0.799900000000     0          
N9       N      0.740400000000     0.102100000000     0.799600000000     0          
N10      N      0.776700000000     0.065500000000     0.847400000000     0          
C11      C      0.646400000000     0.973800000000     0.823900000000     0          
C12      C      0.797700000000     0.122600000000     0.823500000000     0          
H13      H      0.323690000000     0.878400000000     0.934840000000     0          
H14      H      0.686950000000     0.947480000000     0.866980000000     0          
H15      H      0.621110000000     0.014100000000     0.780480000000     0          
Zr16     Zr     0.275300000000     0.724700000000     0.861300000000     0          
O17      O      0.268000000000     0.732000000000     0.796100000000     0          
Zr18     Zr     0.392200000000     0.784400000000     0.789800000000     0          
C19      C      0.410400000000     0.820800000000     0.904000000000     0          
C20      C      0.436500000000     0.873000000000     0.932000000000     0          
C21      C      0.486700000000     0.973400000000     0.985700000000     0          
O22      O      0.397200000000     0.794400000000     0.848200000000     0          
O23      O      0.473000000000     0.826200000000     0.750000000000     0          
O1       O      0.444000000000     0.288900000000     0.154800000000     0          
O2       O      0.483800000000     0.370800000000     0.197000000000     0          
O3       O      0.660800000000     0.460600000000     0.107200000000     0          
C4       C      0.614300000000     0.512600000000     0.054500000000     0          
N5       N      0.589900000000     0.537200000000     0.028300000000     0          
C6       C      0.432200000000     0.329100000000     0.175900000000     0          
C7       C      0.297500000000     0.290100000000     0.152500000000     0          
C8       C      0.333700000000     0.362900000000     0.200100000000     0          
N9       N      0.259600000000     0.361700000000     0.200400000000     0          
N10      N      0.223300000000     0.288800000000     0.152600000000     0          
C11      C      0.353600000000     0.327400000000     0.176100000000     0          
C12      C      0.202300000000     0.324900000000     0.176500000000     0          
H13      H      0.676310000000     0.554710000000     0.065160000000     0          
H14      H      0.313050000000     0.260530000000     0.133020000000     0          
H15      H      0.378890000000     0.392990000000     0.219520000000     0          
Zr16     Zr     0.724700000000     0.449400000000     0.138700000000     0          
O17      O      0.732000000000     0.464000000000     0.203900000000     0          
Zr18     Zr     0.607800000000     0.392200000000     0.210200000000     0          
C19      C      0.589600000000     0.410400000000     0.096000000000     0          
C20      C      0.563500000000     0.436500000000     0.068000000000     0          
C21      C      0.513300000000     0.486700000000     0.014300000000     0          
O22      O      0.602800000000     0.397200000000     0.151800000000     0          
O23      O      0.527000000000     0.353200000000     0.250000000000     0          
O24      O      0.666670000000     0.333330000000     0.125000000000     0          
O25      O      0.666670000000     0.333330000000     0.223000000000     0          
O1       O      0.155100000000     0.444000000000     0.654800000000     0          
O2       O      0.113000000000     0.483800000000     0.697000000000     0          
O3       O      0.200200000000     0.660800000000     0.607200000000     0          
C4       C      0.101700000000     0.614300000000     0.554500000000     0          
N5       N      0.052700000000     0.589900000000     0.528300000000     0          
C6       C      0.103100000000     0.432200000000     0.675900000000     0          
C7       C      0.007400000000     0.297500000000     0.652500000000     0          
C8       C      0.970800000000     0.333700000000     0.700100000000     0          
N9       N      0.897900000000     0.259600000000     0.700400000000     0          
N10      N      0.934500000000     0.223300000000     0.652600000000     0          
C11      C      0.026200000000     0.353600000000     0.676100000000     0          
C12      C      0.877400000000     0.202300000000     0.676500000000     0          
H13      H      0.121600000000     0.676310000000     0.565160000000     0          
H14      H      0.052520000000     0.313050000000     0.633020000000     0          
H15      H      0.985900000000     0.378890000000     0.719520000000     0          
Zr16     Zr     0.275300000000     0.724700000000     0.638700000000     0          
O17      O      0.268000000000     0.732000000000     0.703900000000     0          
Zr18     Zr     0.215600000000     0.607800000000     0.710200000000     0          
C19      C      0.179200000000     0.589600000000     0.596000000000     0          
C20      C      0.127000000000     0.563500000000     0.568000000000     0          
C21      C      0.026600000000     0.513300000000     0.514300000000     0          
O22      O      0.205600000000     0.602800000000     0.651800000000     0          
O23      O      0.173800000000     0.527000000000     0.750000000000     0          
O24      O      0.333340000000     0.666670000000     0.625000000000     0          
O25      O      0.333340000000     0.666670000000     0.723000000000     0          
O1       O      0.711100000000     0.155100000000     0.154800000000     0          
O2       O      0.629200000000     0.113000000000     0.197000000000     0          
O3       O      0.539400000000     0.200200000000     0.107200000000     0          
C4       C      0.487400000000     0.101700000000     0.054500000000     0          
N5       N      0.462800000000     0.052700000000     0.028300000000     0          
C6       C      0.670900000000     0.103100000000     0.175900000000     0          
C7       C      0.709900000000     0.007400000000     0.152500000000     0          
C8       C      0.637100000000     0.970800000000     0.200100000000     0          
N9       N      0.638300000000     0.897900000000     0.200400000000     0          
N10      N      0.711200000000     0.934500000000     0.152600000000     0          
C11      C      0.672600000000     0.026200000000     0.176100000000     0          
C12      C      0.675100000000     0.877400000000     0.176500000000     0          
H13      H      0.445290000000     0.121600000000     0.065160000000     0          
H14      H      0.739470000000     0.052520000000     0.133020000000     0          
H15      H      0.607010000000     0.985900000000     0.219520000000     0          
Zr16     Zr     0.550600000000     0.275300000000     0.138700000000     0          
O17      O      0.536000000000     0.268000000000     0.203900000000     0          
Zr18     Zr     0.607800000000     0.215600000000     0.210200000000     0          
C19      C      0.589600000000     0.179200000000     0.096000000000     0          
C20      C      0.563500000000     0.127000000000     0.068000000000     0          
C21      C      0.513300000000     0.026600000000     0.014300000000     0          
O22      O      0.602800000000     0.205600000000     0.151800000000     0          
O23      O      0.646800000000     0.173800000000     0.250000000000     0          
O1       O      0.556000000000     0.711100000000     0.654800000000     0          
O2       O      0.516200000000     0.629200000000     0.697000000000     0          
O3       O      0.339200000000     0.539400000000     0.607200000000     0          
C4       C      0.385700000000     0.487400000000     0.554500000000     0          
N5       N      0.410100000000     0.462800000000     0.528300000000     0          
C6       C      0.567800000000     0.670900000000     0.675900000000     0          
C7       C      0.702500000000     0.709900000000     0.652500000000     0          
C8       C      0.666300000000     0.637100000000     0.700100000000     0          
N9       N      0.740400000000     0.638300000000     0.700400000000     0          
N10      N      0.776700000000     0.711200000000     0.652600000000     0          
C11      C      0.646400000000     0.672600000000     0.676100000000     0          
C12      C      0.797700000000     0.675100000000     0.676500000000     0          
H13      H      0.323690000000     0.445290000000     0.565160000000     0          
H14      H      0.686950000000     0.739470000000     0.633020000000     0          
H15      H      0.621110000000     0.607010000000     0.719520000000     0          
Zr16     Zr     0.275300000000     0.550600000000     0.638700000000     0          
O17      O      0.268000000000     0.536000000000     0.703900000000     0          
Zr18     Zr     0.392200000000     0.607800000000     0.710200000000     0          
C19      C      0.410400000000     0.589600000000     0.596000000000     0          
C20      C      0.436500000000     0.563500000000     0.568000000000     0          
C21      C      0.486700000000     0.513300000000     0.514300000000     0          
O22      O      0.397200000000     0.602800000000     0.651800000000     0          
O23      O      0.473000000000     0.646800000000     0.750000000000     0          
O1       O      0.844900000000     0.556000000000     0.154800000000     0          
O2       O      0.887000000000     0.516200000000     0.197000000000     0          
O3       O      0.799800000000     0.339200000000     0.107200000000     0          
C4       C      0.898300000000     0.385700000000     0.054500000000     0          
N5       N      0.947300000000     0.410100000000     0.028300000000     0          
C6       C      0.896900000000     0.567800000000     0.175900000000     0          
C7       C      0.992600000000     0.702500000000     0.152500000000     0          
C8       C      0.029200000000     0.666300000000     0.200100000000     0          
N9       N      0.102100000000     0.740400000000     0.200400000000     0          
N10      N      0.065500000000     0.776700000000     0.152600000000     0          
C11      C      0.973800000000     0.646400000000     0.176100000000     0          
C12      C      0.122600000000     0.797700000000     0.176500000000     0          
H13      H      0.878400000000     0.323690000000     0.065160000000     0          
H14      H      0.947480000000     0.686950000000     0.133020000000     0          
H15      H      0.014100000000     0.621110000000     0.219520000000     0          
Zr16     Zr     0.724700000000     0.275300000000     0.138700000000     0          
O17      O      0.732000000000     0.268000000000     0.203900000000     0          
Zr18     Zr     0.784400000000     0.392200000000     0.210200000000     0          
C19      C      0.820800000000     0.410400000000     0.096000000000     0          
C20      C      0.873000000000     0.436500000000     0.068000000000     0          
C21      C      0.973400000000     0.486700000000     0.014300000000     0          
O22      O      0.794400000000     0.397200000000     0.151800000000     0          
O23      O      0.826200000000     0.473000000000     0.250000000000     0          
O1       O      0.288900000000     0.844900000000     0.654800000000     0          
O2       O      0.370800000000     0.887000000000     0.697000000000     0          
O3       O      0.460600000000     0.799800000000     0.607200000000     0          
C4       C      0.512600000000     0.898300000000     0.554500000000     0          
N5       N      0.537200000000     0.947300000000     0.528300000000     0          
C6       C      0.329100000000     0.896900000000     0.675900000000     0          
C7       C      0.290100000000     0.992600000000     0.652500000000     0          
C8       C      0.362900000000     0.029200000000     0.700100000000     0          
N9       N      0.361700000000     0.102100000000     0.700400000000     0          
N10      N      0.288800000000     0.065500000000     0.652600000000     0          
C11      C      0.327400000000     0.973800000000     0.676100000000     0          
C12      C      0.324900000000     0.122600000000     0.676500000000     0          
H13      H      0.554710000000     0.878400000000     0.565160000000     0          
H14      H      0.260530000000     0.947480000000     0.633020000000     0          
H15      H      0.392990000000     0.014100000000     0.719520000000     0          
Zr16     Zr     0.449400000000     0.724700000000     0.638700000000     0          
O17      O      0.464000000000     0.732000000000     0.703900000000     0          
Zr18     Zr     0.392200000000     0.784400000000     0.710200000000     0          
C19      C      0.410400000000     0.820800000000     0.596000000000     0          
C20      C      0.436500000000     0.873000000000     0.568000000000     0          
C21      C      0.486700000000     0.973400000000     0.514300000000     0          
O22      O      0.397200000000     0.794400000000     0.651800000000     0          
O23      O      0.353200000000     0.826200000000     0.750000000000     0          
O1       O      0.288900000000     0.444000000000     0.654800000000     0          
O2       O      0.370800000000     0.483800000000     0.697000000000     0          
O3       O      0.460600000000     0.660800000000     0.607200000000     0          
C4       C      0.512600000000     0.614300000000     0.554500000000     0          
N5       N      0.537200000000     0.589900000000     0.528300000000     0          
C6       C      0.329100000000     0.432200000000     0.675900000000     0          
C7       C      0.290100000000     0.297500000000     0.652500000000     0          
C8       C      0.362900000000     0.333700000000     0.700100000000     0          
N9       N      0.361700000000     0.259600000000     0.700400000000     0          
N10      N      0.288800000000     0.223300000000     0.652600000000     0          
C11      C      0.327400000000     0.353600000000     0.676100000000     0          
C12      C      0.324900000000     0.202300000000     0.676500000000     0          
H13      H      0.554710000000     0.676310000000     0.565160000000     0          
H14      H      0.260530000000     0.313050000000     0.633020000000     0          
H15      H      0.392990000000     0.378890000000     0.719520000000     0          
O1       O      0.844900000000     0.288900000000     0.154800000000     0          
O2       O      0.887000000000     0.370800000000     0.197000000000     0          
O3       O      0.799800000000     0.460600000000     0.107200000000     0          
C4       C      0.898300000000     0.512600000000     0.054500000000     0          
N5       N      0.947300000000     0.537200000000     0.028300000000     0          
C6       C      0.896900000000     0.329100000000     0.175900000000     0          
C7       C      0.992600000000     0.290100000000     0.152500000000     0          
C8       C      0.029200000000     0.362900000000     0.200100000000     0          
N9       N      0.102100000000     0.361700000000     0.200400000000     0          
N10      N      0.065500000000     0.288800000000     0.152600000000     0          
C11      C      0.973800000000     0.327400000000     0.176100000000     0          
C12      C      0.122600000000     0.324900000000     0.176500000000     0          
H13      H      0.878400000000     0.554710000000     0.065160000000     0          
H14      H      0.947480000000     0.260530000000     0.133020000000     0          
H15      H      0.014100000000     0.392990000000     0.219520000000     0          
O1       O      0.556000000000     0.844900000000     0.654800000000     0          
O2       O      0.516200000000     0.887000000000     0.697000000000     0          
O3       O      0.339200000000     0.799800000000     0.607200000000     0          
C4       C      0.385700000000     0.898300000000     0.554500000000     0          
N5       N      0.410100000000     0.947300000000     0.528300000000     0          
C6       C      0.567800000000     0.896900000000     0.675900000000     0          
C7       C      0.702500000000     0.992600000000     0.652500000000     0          
C8       C      0.666300000000     0.029200000000     0.700100000000     0          
N9       N      0.740400000000     0.102100000000     0.700400000000     0          
N10      N      0.776700000000     0.065500000000     0.652600000000     0          
C11      C      0.646400000000     0.973800000000     0.676100000000     0          
C12      C      0.797700000000     0.122600000000     0.676500000000     0          
H13      H      0.323690000000     0.878400000000     0.565160000000     0          
H14      H      0.686950000000     0.947480000000     0.633020000000     0          
H15      H      0.621110000000     0.014100000000     0.719520000000     0          
O1       O      0.711100000000     0.556000000000     0.154800000000     0          
O2       O      0.629200000000     0.516200000000     0.197000000000     0          
O3       O      0.539400000000     0.339200000000     0.107200000000     0          
C4       C      0.487400000000     0.385700000000     0.054500000000     0          
N5       N      0.462800000000     0.410100000000     0.028300000000     0          
C6       C      0.670900000000     0.567800000000     0.175900000000     0          
C7       C      0.709900000000     0.702500000000     0.152500000000     0          
C8       C      0.637100000000     0.666300000000     0.200100000000     0          
N9       N      0.638300000000     0.740400000000     0.200400000000     0          
N10      N      0.711200000000     0.776700000000     0.152600000000     0          
C11      C      0.672600000000     0.646400000000     0.176100000000     0          
C12      C      0.675100000000     0.797700000000     0.176500000000     0          
H13      H      0.445290000000     0.323690000000     0.065160000000     0          
H14      H      0.739470000000     0.686950000000     0.133020000000     0          
H15      H      0.607010000000     0.621110000000     0.219520000000     0          
O1       O      0.155100000000     0.711100000000     0.654800000000     0          
O2       O      0.113000000000     0.629200000000     0.697000000000     0          
O3       O      0.200200000000     0.539400000000     0.607200000000     0          
C4       C      0.101700000000     0.487400000000     0.554500000000     0          
N5       N      0.052700000000     0.462800000000     0.528300000000     0          
C6       C      0.103100000000     0.670900000000     0.675900000000     0          
C7       C      0.007400000000     0.709900000000     0.652500000000     0          
C8       C      0.970800000000     0.637100000000     0.700100000000     0          
N9       N      0.897900000000     0.638300000000     0.700400000000     0          
N10      N      0.934500000000     0.711200000000     0.652600000000     0          
C11      C      0.026200000000     0.672600000000     0.676100000000     0          
C12      C      0.877400000000     0.675100000000     0.676500000000     0          
H13      H      0.121600000000     0.445290000000     0.565160000000     0          
H14      H      0.052520000000     0.739470000000     0.633020000000     0          
H15      H      0.985900000000     0.607010000000     0.719520000000     0          
O1       O      0.444000000000     0.155100000000     0.154800000000     0          
O2       O      0.483800000000     0.113000000000     0.197000000000     0          
O3       O      0.660800000000     0.200200000000     0.107200000000     0          
C4       C      0.614300000000     0.101700000000     0.054500000000     0          
N5       N      0.589900000000     0.052700000000     0.028300000000     0          
C6       C      0.432200000000     0.103100000000     0.175900000000     0          
C7       C      0.297500000000     0.007400000000     0.152500000000     0          
C8       C      0.333700000000     0.970800000000     0.200100000000     0          
N9       N      0.259600000000     0.897900000000     0.200400000000     0          
N10      N      0.223300000000     0.934500000000     0.152600000000     0          
C11      C      0.353600000000     0.026200000000     0.176100000000     0          
C12      C      0.202300000000     0.877400000000     0.176500000000     0          
H13      H      0.676310000000     0.121600000000     0.065160000000     0          
H14      H      0.313050000000     0.052520000000     0.133020000000     0          
H15      H      0.378890000000     0.985900000000     0.219520000000     0          
O1       O      0.556000000000     0.711100000000     0.845200000000     0          
O2       O      0.516200000000     0.629200000000     0.803000000000     0          
O3       O      0.339200000000     0.539400000000     0.892800000000     0          
C4       C      0.385700000000     0.487400000000     0.945500000000     0          
N5       N      0.410100000000     0.462800000000     0.971700000000     0          
C6       C      0.567800000000     0.670900000000     0.824100000000     0          
C7       C      0.702500000000     0.709900000000     0.847500000000     0          
C8       C      0.666300000000     0.637100000000     0.799900000000     0          
N9       N      0.740400000000     0.638300000000     0.799600000000     0          
N10      N      0.776700000000     0.711200000000     0.847400000000     0          
C11      C      0.646400000000     0.672600000000     0.823900000000     0          
C12      C      0.797700000000     0.675100000000     0.823500000000     0          
H13      H      0.323690000000     0.445290000000     0.934840000000     0          
H14      H      0.686950000000     0.739470000000     0.866980000000     0          
H15      H      0.621110000000     0.607010000000     0.780480000000     0          
O1       O      0.844900000000     0.556000000000     0.345200000000     0          
O2       O      0.887000000000     0.516200000000     0.303000000000     0          
O3       O      0.799800000000     0.339200000000     0.392800000000     0          
C4       C      0.898300000000     0.385700000000     0.445500000000     0          
N5       N      0.947300000000     0.410100000000     0.471700000000     0          
C6       C      0.896900000000     0.567800000000     0.324100000000     0          
C7       C      0.992600000000     0.702500000000     0.347500000000     0          
C8       C      0.029200000000     0.666300000000     0.299900000000     0          
N9       N      0.102100000000     0.740400000000     0.299600000000     0          
N10      N      0.065500000000     0.776700000000     0.347400000000     0          
C11      C      0.973800000000     0.646400000000     0.323900000000     0          
C12      C      0.122600000000     0.797700000000     0.323500000000     0          
H13      H      0.878400000000     0.323690000000     0.434840000000     0          
H14      H      0.947480000000     0.686950000000     0.366980000000     0          
H15      H      0.014100000000     0.621110000000     0.280480000000     0          
O1       O      0.288900000000     0.844900000000     0.845200000000     0          
O2       O      0.370800000000     0.887000000000     0.803000000000     0          
O3       O      0.460600000000     0.799800000000     0.892800000000     0          
C4       C      0.512600000000     0.898300000000     0.945500000000     0          
N5       N      0.537200000000     0.947300000000     0.971700000000     0          
C6       C      0.329100000000     0.896900000000     0.824100000000     0          
C7       C      0.290100000000     0.992600000000     0.847500000000     0          
C8       C      0.362900000000     0.029200000000     0.799900000000     0          
N9       N      0.361700000000     0.102100000000     0.799600000000     0          
N10      N      0.288800000000     0.065500000000     0.847400000000     0          
C11      C      0.327400000000     0.973800000000     0.823900000000     0          
C12      C      0.324900000000     0.122600000000     0.823500000000     0          
H13      H      0.554710000000     0.878400000000     0.934840000000     0          
H14      H      0.260530000000     0.947480000000     0.866980000000     0          
H15      H      0.392990000000     0.014100000000     0.780480000000     0          
O1       O      0.444000000000     0.288900000000     0.345200000000     0          
O2       O      0.483800000000     0.370800000000     0.303000000000     0          
O3       O      0.660800000000     0.460600000000     0.392800000000     0          
C4       C      0.614300000000     0.512600000000     0.445500000000     0          
N5       N      0.589900000000     0.537200000000     0.471700000000     0          
C6       C      0.432200000000     0.329100000000     0.324100000000     0          
C7       C      0.297500000000     0.290100000000     0.347500000000     0          
C8       C      0.333700000000     0.362900000000     0.299900000000     0          
N9       N      0.259600000000     0.361700000000     0.299600000000     0          
N10      N      0.223300000000     0.288800000000     0.347400000000     0          
C11      C      0.353600000000     0.327400000000     0.323900000000     0          
C12      C      0.202300000000     0.324900000000     0.323500000000     0          
H13      H      0.676310000000     0.554710000000     0.434840000000     0          
H14      H      0.313050000000     0.260530000000     0.366980000000     0          
H15      H      0.378890000000     0.392990000000     0.280480000000     0          
O1       O      0.155100000000     0.444000000000     0.845200000000     0          
O2       O      0.113000000000     0.483800000000     0.803000000000     0          
O3       O      0.200200000000     0.660800000000     0.892800000000     0          
C4       C      0.101700000000     0.614300000000     0.945500000000     0          
N5       N      0.052700000000     0.589900000000     0.971700000000     0          
C6       C      0.103100000000     0.432200000000     0.824100000000     0          
C7       C      0.007400000000     0.297500000000     0.847500000000     0          
C8       C      0.970800000000     0.333700000000     0.799900000000     0          
N9       N      0.897900000000     0.259600000000     0.799600000000     0          
N10      N      0.934500000000     0.223300000000     0.847400000000     0          
C11      C      0.026200000000     0.353600000000     0.823900000000     0          
C12      C      0.877400000000     0.202300000000     0.823500000000     0          
H13      H      0.121600000000     0.676310000000     0.934840000000     0          
H14      H      0.052520000000     0.313050000000     0.866980000000     0          
H15      H      0.985900000000     0.378890000000     0.780480000000     0          
O1       O      0.711100000000     0.155100000000     0.345200000000     0          
O2       O      0.629200000000     0.113000000000     0.303000000000     0          
O3       O      0.539400000000     0.200200000000     0.392800000000     0          
C4       C      0.487400000000     0.101700000000     0.445500000000     0          
N5       N      0.462800000000     0.052700000000     0.471700000000     0          
C6       C      0.670900000000     0.103100000000     0.324100000000     0          
C7       C      0.709900000000     0.007400000000     0.347500000000     0          
C8       C      0.637100000000     0.970800000000     0.299900000000     0          
N9       N      0.638300000000     0.897900000000     0.299600000000     0          
N10      N      0.711200000000     0.934500000000     0.347400000000     0          
C11      C      0.672600000000     0.026200000000     0.323900000000     0          
C12      C      0.675100000000     0.877400000000     0.323500000000     0          
H13      H      0.445290000000     0.121600000000     0.434840000000     0          
H14      H      0.739470000000     0.052520000000     0.366980000000     0          
H15      H      0.607010000000     0.985900000000     0.280480000000     0          


