data_SURKAT

_audit_creation_method RASPA-1.0
_audit_creation_date 2020-11-2
_audit_author_name 'Rocio Bueno-Perez'

_cell_length_a    20.7988
_cell_length_b    20.7988
_cell_length_c    20.7988
_cell_angle_alpha 90
_cell_angle_beta  90
_cell_angle_gamma 90
_cell_volume      8997.35

_symmetry_cell_setting          triclinic
_symmetry_space_group_name_Hall 'P 1'
_symmetry_space_group_name_H-M  'P 1'
_symmetry_Int_Tables_number     1

_symmetry_equiv_pos_as_xyz 'x,y,z'

loop_
_atom_site_label
_atom_site_type_symbol
_atom_site_fract_x
_atom_site_fract_y
_atom_site_fract_z
_atom_site_charge
Zr1      Zr     0.119080000000     0.000000000000     0.000000000000     0          
Zr2      Zr     0.119080000000     0.500000000000     0.500000000000     0          
Zr3      Zr     0.619080000000     0.000000000000     0.500000000000     0          
Zr4      Zr     0.619080000000     0.500000000000     0.000000000000     0          
Zr5      Zr     0.880920000000     0.000000000000     0.000000000000     0          
Zr6      Zr     0.880920000000     0.500000000000     0.500000000000     0          
Zr7      Zr     0.380920000000     0.000000000000     0.500000000000     0          
Zr8      Zr     0.380920000000     0.500000000000     0.000000000000     0          
Zr9      Zr     0.000000000000     0.119080000000     0.000000000000     0          
Zr10     Zr     0.000000000000     0.619080000000     0.500000000000     0          
Zr11     Zr     0.500000000000     0.119080000000     0.500000000000     0          
Zr12     Zr     0.500000000000     0.619080000000     0.000000000000     0          
Zr13     Zr     0.000000000000     0.880920000000     0.000000000000     0          
Zr14     Zr     0.000000000000     0.380920000000     0.500000000000     0          
Zr15     Zr     0.500000000000     0.880920000000     0.500000000000     0          
Zr16     Zr     0.500000000000     0.380920000000     0.000000000000     0          
Zr17     Zr     0.000000000000     0.000000000000     0.119080000000     0          
Zr18     Zr     0.000000000000     0.500000000000     0.619080000000     0          
Zr19     Zr     0.500000000000     0.000000000000     0.619080000000     0          
Zr20     Zr     0.500000000000     0.500000000000     0.119080000000     0          
Zr21     Zr     0.000000000000     0.000000000000     0.880920000000     0          
Zr22     Zr     0.000000000000     0.500000000000     0.380920000000     0          
Zr23     Zr     0.500000000000     0.000000000000     0.380920000000     0          
Zr24     Zr     0.500000000000     0.500000000000     0.880920000000     0          
O25      O      0.171160000000     0.093610000000     0.000000000000     0          
C26      C      0.267400000000     0.185400000000     0.000000000000     0          
O27      O      0.171160000000     0.593610000000     0.500000000000     0          
C28      C      0.267400000000     0.685400000000     0.500000000000     0          
O29      O      0.671160000000     0.093610000000     0.500000000000     0          
C30      C      0.767400000000     0.185400000000     0.500000000000     0          
O31      O      0.671160000000     0.593610000000     0.000000000000     0          
C32      C      0.767400000000     0.685400000000     0.000000000000     0          
N33      N      0.794000000000     0.618800000000     0.000000000000     0          
O34      O      0.828840000000     0.906390000000     0.000000000000     0          
C35      C      0.732600000000     0.814600000000     0.000000000000     0          
O36      O      0.828840000000     0.406390000000     0.500000000000     0          
C37      C      0.732600000000     0.314600000000     0.500000000000     0          
O38      O      0.328840000000     0.906390000000     0.500000000000     0          
C39      C      0.232600000000     0.814600000000     0.500000000000     0          
N40      N      0.206000000000     0.881200000000     0.500000000000     0          
O41      O      0.328840000000     0.406390000000     0.000000000000     0          
C42      C      0.232600000000     0.314600000000     0.000000000000     0          
N43      N      0.206000000000     0.381200000000     0.000000000000     0          
O44      O      0.828840000000     0.093610000000     0.000000000000     0          
C45      C      0.732600000000     0.185400000000     0.000000000000     0          
N46      N      0.706000000000     0.118800000000     0.000000000000     0          
O47      O      0.828840000000     0.593610000000     0.500000000000     0          
C48      C      0.732600000000     0.685400000000     0.500000000000     0          
O49      O      0.328840000000     0.093610000000     0.500000000000     0          
C50      C      0.232600000000     0.185400000000     0.500000000000     0          
O51      O      0.328840000000     0.593610000000     0.000000000000     0          
C52      C      0.232600000000     0.685400000000     0.000000000000     0          
O53      O      0.171160000000     0.906390000000     0.000000000000     0          
C54      C      0.267400000000     0.814600000000     0.000000000000     0          
O55      O      0.171160000000     0.406390000000     0.500000000000     0          
C56      C      0.267400000000     0.314600000000     0.500000000000     0          
O57      O      0.671160000000     0.906390000000     0.500000000000     0          
C58      C      0.767400000000     0.814600000000     0.500000000000     0          
N59      N      0.794000000000     0.881200000000     0.500000000000     0          
O60      O      0.671160000000     0.406390000000     0.000000000000     0          
C61      C      0.767400000000     0.314600000000     0.000000000000     0          
O62      O      0.000000000000     0.171160000000     0.093610000000     0          
C63      C      0.000000000000     0.267400000000     0.185400000000     0          
O64      O      0.000000000000     0.671160000000     0.593610000000     0          
C65      C      0.000000000000     0.767400000000     0.685400000000     0          
O66      O      0.500000000000     0.171160000000     0.593610000000     0          
C67      C      0.500000000000     0.267400000000     0.685400000000     0          
O68      O      0.500000000000     0.671160000000     0.093610000000     0          
C69      C      0.500000000000     0.767400000000     0.185400000000     0          
O70      O      0.000000000000     0.828840000000     0.906390000000     0          
C71      C      0.000000000000     0.732600000000     0.814600000000     0          
O72      O      0.000000000000     0.328840000000     0.406390000000     0          
C73      C      0.000000000000     0.232600000000     0.314600000000     0          
O74      O      0.500000000000     0.828840000000     0.406390000000     0          
C75      C      0.500000000000     0.732600000000     0.314600000000     0          
N76      N      0.500000000000     0.706000000000     0.381200000000     0          
O77      O      0.500000000000     0.328840000000     0.906390000000     0          
C78      C      0.500000000000     0.232600000000     0.814600000000     0          
N79      N      0.500000000000     0.206000000000     0.881200000000     0          
O80      O      0.000000000000     0.828840000000     0.093610000000     0          
C81      C      0.000000000000     0.732600000000     0.185400000000     0          
O82      O      0.000000000000     0.328840000000     0.593610000000     0          
C83      C      0.000000000000     0.232600000000     0.685400000000     0          
O84      O      0.500000000000     0.828840000000     0.593610000000     0          
C85      C      0.500000000000     0.732600000000     0.685400000000     0          
O86      O      0.500000000000     0.328840000000     0.093610000000     0          
C87      C      0.500000000000     0.232600000000     0.185400000000     0          
N88      N      0.500000000000     0.206000000000     0.118800000000     0          
O89      O      0.000000000000     0.171160000000     0.906390000000     0          
C90      C      0.000000000000     0.267400000000     0.814600000000     0          
O91      O      0.000000000000     0.671160000000     0.406390000000     0          
C92      C      0.000000000000     0.767400000000     0.314600000000     0          
O93      O      0.500000000000     0.171160000000     0.406390000000     0          
C94      C      0.500000000000     0.267400000000     0.314600000000     0          
O95      O      0.500000000000     0.671160000000     0.906390000000     0          
C96      C      0.500000000000     0.767400000000     0.814600000000     0          
N97      N      0.500000000000     0.794000000000     0.881200000000     0          
O98      O      0.093610000000     0.000000000000     0.171160000000     0          
C99      C      0.185400000000     0.000000000000     0.267400000000     0          
O100     O      0.093610000000     0.500000000000     0.671160000000     0          
C101     C      0.185400000000     0.500000000000     0.767400000000     0          
O102     O      0.593610000000     0.000000000000     0.671160000000     0          
C103     C      0.685400000000     0.000000000000     0.767400000000     0          
O104     O      0.593610000000     0.500000000000     0.171160000000     0          
C105     C      0.685400000000     0.500000000000     0.267400000000     0          
N106     N      0.618800000000     0.500000000000     0.294000000000     0          
O107     O      0.906390000000     0.000000000000     0.828840000000     0          
C108     C      0.814600000000     0.000000000000     0.732600000000     0          
O109     O      0.906390000000     0.500000000000     0.328840000000     0          
C110     C      0.814600000000     0.500000000000     0.232600000000     0          
O111     O      0.406390000000     0.000000000000     0.328840000000     0          
C112     C      0.314600000000     0.000000000000     0.232600000000     0          
O113     O      0.406390000000     0.500000000000     0.828840000000     0          
C114     C      0.314600000000     0.500000000000     0.732600000000     0          
N115     N      0.381200000000     0.500000000000     0.706000000000     0          
O116     O      0.093610000000     0.000000000000     0.828840000000     0          
C117     C      0.185400000000     0.000000000000     0.732600000000     0          
N118     N      0.118800000000     0.000000000000     0.706000000000     0          
O119     O      0.093610000000     0.500000000000     0.328840000000     0          
C120     C      0.185400000000     0.500000000000     0.232600000000     0          
O121     O      0.593610000000     0.000000000000     0.328840000000     0          
C122     C      0.685400000000     0.000000000000     0.232600000000     0          
N123     N      0.618800000000     0.000000000000     0.206000000000     0          
O124     O      0.593610000000     0.500000000000     0.828840000000     0          
C125     C      0.685400000000     0.500000000000     0.732600000000     0          
N126     N      0.618800000000     0.500000000000     0.706000000000     0          
O127     O      0.906390000000     0.000000000000     0.171160000000     0          
C128     C      0.814600000000     0.000000000000     0.267400000000     0          
O129     O      0.906390000000     0.500000000000     0.671160000000     0          
C130     C      0.814600000000     0.500000000000     0.767400000000     0          
O131     O      0.406390000000     0.000000000000     0.671160000000     0          
C132     C      0.314600000000     0.000000000000     0.767400000000     0          
O133     O      0.406390000000     0.500000000000     0.171160000000     0          
C134     C      0.314600000000     0.500000000000     0.267400000000     0          
O135     O      0.093610000000     0.171160000000     0.000000000000     0          
C136     C      0.185400000000     0.267400000000     0.000000000000     0          
O137     O      0.093610000000     0.671160000000     0.500000000000     0          
C138     C      0.185400000000     0.767400000000     0.500000000000     0          
O139     O      0.593610000000     0.171160000000     0.500000000000     0          
C140     C      0.685400000000     0.267400000000     0.500000000000     0          
O141     O      0.593610000000     0.671160000000     0.000000000000     0          
C142     C      0.685400000000     0.767400000000     0.000000000000     0          
O143     O      0.906390000000     0.828840000000     0.000000000000     0          
C144     C      0.814600000000     0.732600000000     0.000000000000     0          
O145     O      0.906390000000     0.328840000000     0.500000000000     0          
C146     C      0.814600000000     0.232600000000     0.500000000000     0          
N147     N      0.881200000000     0.206000000000     0.500000000000     0          
O148     O      0.406390000000     0.828840000000     0.500000000000     0          
C149     C      0.314600000000     0.732600000000     0.500000000000     0          
O150     O      0.406390000000     0.328840000000     0.000000000000     0          
C151     C      0.314600000000     0.232600000000     0.000000000000     0          
O152     O      0.093610000000     0.828840000000     0.000000000000     0          
C153     C      0.185400000000     0.732600000000     0.000000000000     0          
N154     N      0.118800000000     0.706000000000     0.000000000000     0          
O155     O      0.093610000000     0.328840000000     0.500000000000     0          
C156     C      0.185400000000     0.232600000000     0.500000000000     0          
O157     O      0.593610000000     0.828840000000     0.500000000000     0          
C158     C      0.685400000000     0.732600000000     0.500000000000     0          
O159     O      0.593610000000     0.328840000000     0.000000000000     0          
C160     C      0.685400000000     0.232600000000     0.000000000000     0          
O161     O      0.906390000000     0.171160000000     0.000000000000     0          
C162     C      0.814600000000     0.267400000000     0.000000000000     0          
O163     O      0.906390000000     0.671160000000     0.500000000000     0          
C164     C      0.814600000000     0.767400000000     0.500000000000     0          
O165     O      0.406390000000     0.171160000000     0.500000000000     0          
C166     C      0.314600000000     0.267400000000     0.500000000000     0          
N167     N      0.381200000000     0.294000000000     0.500000000000     0          
O168     O      0.406390000000     0.671160000000     0.000000000000     0          
C169     C      0.314600000000     0.767400000000     0.000000000000     0          
O170     O      0.171160000000     0.000000000000     0.906390000000     0          
C171     C      0.267400000000     0.000000000000     0.814600000000     0          
O172     O      0.171160000000     0.500000000000     0.406390000000     0          
C173     C      0.267400000000     0.500000000000     0.314600000000     0          
N174     N      0.294000000000     0.500000000000     0.381200000000     0          
O175     O      0.671160000000     0.000000000000     0.406390000000     0          
C176     C      0.767400000000     0.000000000000     0.314600000000     0          
O177     O      0.671160000000     0.500000000000     0.906390000000     0          
O178     O      0.828840000000     0.000000000000     0.093610000000     0          
C179     C      0.732600000000     0.000000000000     0.185400000000     0          
O180     O      0.828840000000     0.500000000000     0.593610000000     0          
C181     C      0.732600000000     0.500000000000     0.685400000000     0          
O182     O      0.328840000000     0.000000000000     0.593610000000     0          
C183     C      0.232600000000     0.000000000000     0.685400000000     0          
O184     O      0.328840000000     0.500000000000     0.093610000000     0          
C185     C      0.232600000000     0.500000000000     0.185400000000     0          
O186     O      0.828840000000     0.000000000000     0.906390000000     0          
C187     C      0.732600000000     0.000000000000     0.814600000000     0          
N188     N      0.706000000000     0.000000000000     0.881200000000     0          
O189     O      0.828840000000     0.500000000000     0.406390000000     0          
C190     C      0.732600000000     0.500000000000     0.314600000000     0          
O191     O      0.328840000000     0.000000000000     0.406390000000     0          
C192     C      0.232600000000     0.000000000000     0.314600000000     0          
O193     O      0.328840000000     0.500000000000     0.906390000000     0          
C194     C      0.232600000000     0.500000000000     0.814600000000     0          
O195     O      0.171160000000     0.000000000000     0.093610000000     0          
C196     C      0.267400000000     0.000000000000     0.185400000000     0          
N197     N      0.294000000000     0.000000000000     0.118800000000     0          
O198     O      0.171160000000     0.500000000000     0.593610000000     0          
C199     C      0.267400000000     0.500000000000     0.685400000000     0          
O200     O      0.671160000000     0.000000000000     0.593610000000     0          
C201     C      0.767400000000     0.000000000000     0.685400000000     0          
O202     O      0.671160000000     0.500000000000     0.093610000000     0          
C203     C      0.767400000000     0.500000000000     0.185400000000     0          
O204     O      0.000000000000     0.093610000000     0.828840000000     0          
C205     C      0.000000000000     0.185400000000     0.732600000000     0          
N206     N      0.000000000000     0.118800000000     0.706000000000     0          
O207     O      0.000000000000     0.593610000000     0.328840000000     0          
C208     C      0.000000000000     0.685400000000     0.232600000000     0          
N209     N      0.000000000000     0.618800000000     0.206000000000     0          
O210     O      0.500000000000     0.093610000000     0.328840000000     0          
C211     C      0.500000000000     0.185400000000     0.232600000000     0          
O212     O      0.500000000000     0.593610000000     0.828840000000     0          
C213     C      0.500000000000     0.685400000000     0.732600000000     0          
O214     O      0.000000000000     0.906390000000     0.171160000000     0          
C215     C      0.000000000000     0.814600000000     0.267400000000     0          
O216     O      0.000000000000     0.406390000000     0.671160000000     0          
C217     C      0.000000000000     0.314600000000     0.767400000000     0          
O218     O      0.500000000000     0.906390000000     0.671160000000     0          
C219     C      0.500000000000     0.814600000000     0.767400000000     0          
O220     O      0.500000000000     0.406390000000     0.171160000000     0          
C221     C      0.500000000000     0.314600000000     0.267400000000     0          
O222     O      0.000000000000     0.093610000000     0.171160000000     0          
C223     C      0.000000000000     0.185400000000     0.267400000000     0          
O224     O      0.000000000000     0.593610000000     0.671160000000     0          
C225     C      0.000000000000     0.685400000000     0.767400000000     0          
O226     O      0.500000000000     0.093610000000     0.671160000000     0          
C227     C      0.500000000000     0.185400000000     0.767400000000     0          
O228     O      0.500000000000     0.593610000000     0.171160000000     0          
C229     C      0.500000000000     0.685400000000     0.267400000000     0          
O230     O      0.000000000000     0.906390000000     0.828840000000     0          
C231     C      0.000000000000     0.814600000000     0.732600000000     0          
N232     N      0.000000000000     0.881200000000     0.706000000000     0          
O233     O      0.000000000000     0.406390000000     0.328840000000     0          
C234     C      0.000000000000     0.314600000000     0.232600000000     0          
N235     N      0.000000000000     0.381200000000     0.206000000000     0          
O236     O      0.500000000000     0.906390000000     0.328840000000     0          
C237     C      0.500000000000     0.814600000000     0.232600000000     0          
O238     O      0.500000000000     0.406390000000     0.828840000000     0          
C239     C      0.500000000000     0.314600000000     0.732600000000     0          
C240     C      0.151520000000     0.151520000000     0.000000000000     0          
C241     C      0.202350000000     0.202350000000     0.000000000000     0          
C242     C      0.151520000000     0.651520000000     0.500000000000     0          
C243     C      0.202350000000     0.702350000000     0.500000000000     0          
C244     C      0.651520000000     0.151520000000     0.500000000000     0          
C245     C      0.702350000000     0.202350000000     0.500000000000     0          
C246     C      0.651520000000     0.651520000000     0.000000000000     0          
C247     C      0.702350000000     0.702350000000     0.000000000000     0          
C248     C      0.848480000000     0.848480000000     0.000000000000     0          
C249     C      0.797650000000     0.797650000000     0.000000000000     0          
C250     C      0.848480000000     0.348480000000     0.500000000000     0          
C251     C      0.797650000000     0.297650000000     0.500000000000     0          
C252     C      0.348480000000     0.848480000000     0.500000000000     0          
C253     C      0.297650000000     0.797650000000     0.500000000000     0          
C254     C      0.348480000000     0.348480000000     0.000000000000     0          
C255     C      0.297650000000     0.297650000000     0.000000000000     0          
C256     C      0.848480000000     0.151520000000     0.000000000000     0          
C257     C      0.797650000000     0.202350000000     0.000000000000     0          
C258     C      0.848480000000     0.651520000000     0.500000000000     0          
C259     C      0.797650000000     0.702350000000     0.500000000000     0          
C260     C      0.348480000000     0.151520000000     0.500000000000     0          
C261     C      0.297650000000     0.202350000000     0.500000000000     0          
C262     C      0.348480000000     0.651520000000     0.000000000000     0          
C263     C      0.297650000000     0.702350000000     0.000000000000     0          
C264     C      0.151520000000     0.848480000000     0.000000000000     0          
C265     C      0.202350000000     0.797650000000     0.000000000000     0          
C266     C      0.151520000000     0.348480000000     0.500000000000     0          
C267     C      0.202350000000     0.297650000000     0.500000000000     0          
C268     C      0.651520000000     0.848480000000     0.500000000000     0          
C269     C      0.702350000000     0.797650000000     0.500000000000     0          
C270     C      0.651520000000     0.348480000000     0.000000000000     0          
C271     C      0.702350000000     0.297650000000     0.000000000000     0          
C272     C      0.000000000000     0.151520000000     0.151520000000     0          
C273     C      0.000000000000     0.202350000000     0.202350000000     0          
C274     C      0.000000000000     0.651520000000     0.651520000000     0          
C275     C      0.000000000000     0.702350000000     0.702350000000     0          
C276     C      0.500000000000     0.151520000000     0.651520000000     0          
C277     C      0.500000000000     0.202350000000     0.702350000000     0          
C278     C      0.500000000000     0.651520000000     0.151520000000     0          
C279     C      0.500000000000     0.702350000000     0.202350000000     0          
C280     C      0.000000000000     0.848480000000     0.848480000000     0          
C281     C      0.000000000000     0.797650000000     0.797650000000     0          
C282     C      0.000000000000     0.348480000000     0.348480000000     0          
C283     C      0.000000000000     0.297650000000     0.297650000000     0          
C284     C      0.500000000000     0.848480000000     0.348480000000     0          
C285     C      0.500000000000     0.797650000000     0.297650000000     0          
C286     C      0.500000000000     0.348480000000     0.848480000000     0          
C287     C      0.500000000000     0.297650000000     0.797650000000     0          
C288     C      0.000000000000     0.848480000000     0.151520000000     0          
C289     C      0.000000000000     0.797650000000     0.202350000000     0          
C290     C      0.000000000000     0.348480000000     0.651520000000     0          
C291     C      0.000000000000     0.297650000000     0.702350000000     0          
C292     C      0.500000000000     0.848480000000     0.651520000000     0          
C293     C      0.500000000000     0.797650000000     0.702350000000     0          
C294     C      0.500000000000     0.348480000000     0.151520000000     0          
C295     C      0.500000000000     0.297650000000     0.202350000000     0          
C296     C      0.000000000000     0.151520000000     0.848480000000     0          
C297     C      0.000000000000     0.202350000000     0.797650000000     0          
C298     C      0.000000000000     0.651520000000     0.348480000000     0          
C299     C      0.000000000000     0.702350000000     0.297650000000     0          
C300     C      0.500000000000     0.151520000000     0.348480000000     0          
C301     C      0.500000000000     0.202350000000     0.297650000000     0          
C302     C      0.500000000000     0.651520000000     0.848480000000     0          
C303     C      0.500000000000     0.702350000000     0.797650000000     0          
C304     C      0.151520000000     0.000000000000     0.151520000000     0          
C305     C      0.202350000000     0.000000000000     0.202350000000     0          
C306     C      0.151520000000     0.500000000000     0.651520000000     0          
C307     C      0.202350000000     0.500000000000     0.702350000000     0          
C308     C      0.651520000000     0.000000000000     0.651520000000     0          
C309     C      0.702350000000     0.000000000000     0.702350000000     0          
C310     C      0.651520000000     0.500000000000     0.151520000000     0          
C311     C      0.702350000000     0.500000000000     0.202350000000     0          
C312     C      0.848480000000     0.000000000000     0.848480000000     0          
C313     C      0.797650000000     0.000000000000     0.797650000000     0          
C314     C      0.848480000000     0.500000000000     0.348480000000     0          
C315     C      0.797650000000     0.500000000000     0.297650000000     0          
C316     C      0.348480000000     0.000000000000     0.348480000000     0          
C317     C      0.297650000000     0.000000000000     0.297650000000     0          
C318     C      0.348480000000     0.500000000000     0.848480000000     0          
C319     C      0.297650000000     0.500000000000     0.797650000000     0          
C320     C      0.151520000000     0.000000000000     0.848480000000     0          
C321     C      0.202350000000     0.000000000000     0.797650000000     0          
C322     C      0.151520000000     0.500000000000     0.348480000000     0          
C323     C      0.202350000000     0.500000000000     0.297650000000     0          
C324     C      0.651520000000     0.000000000000     0.348480000000     0          
C325     C      0.702350000000     0.000000000000     0.297650000000     0          
C326     C      0.651520000000     0.500000000000     0.848480000000     0          
C327     C      0.702350000000     0.500000000000     0.797650000000     0          
C328     C      0.848480000000     0.000000000000     0.151520000000     0          
C329     C      0.797650000000     0.000000000000     0.202350000000     0          
C330     C      0.848480000000     0.500000000000     0.651520000000     0          
C331     C      0.797650000000     0.500000000000     0.702350000000     0          
C332     C      0.348480000000     0.000000000000     0.651520000000     0          
C333     C      0.297650000000     0.000000000000     0.702350000000     0          
C334     C      0.348480000000     0.500000000000     0.151520000000     0          
C335     C      0.297650000000     0.500000000000     0.202350000000     0          
O336     O      0.050610000000     0.050610000000     0.050610000000     0          
O337     O      0.050610000000     0.550610000000     0.550610000000     0          
O338     O      0.550610000000     0.050610000000     0.550610000000     0          
O339     O      0.550610000000     0.550610000000     0.050610000000     0          
O340     O      0.949390000000     0.949390000000     0.050610000000     0          
O341     O      0.949390000000     0.449390000000     0.550610000000     0          
O342     O      0.449390000000     0.949390000000     0.550610000000     0          
O343     O      0.449390000000     0.449390000000     0.050610000000     0          
O344     O      0.949390000000     0.050610000000     0.949390000000     0          
O345     O      0.949390000000     0.550610000000     0.449390000000     0          
O346     O      0.449390000000     0.050610000000     0.449390000000     0          
O347     O      0.449390000000     0.550610000000     0.949390000000     0          
O348     O      0.050610000000     0.949390000000     0.949390000000     0          
O349     O      0.050610000000     0.449390000000     0.449390000000     0          
O350     O      0.550610000000     0.949390000000     0.449390000000     0          
O351     O      0.550610000000     0.449390000000     0.949390000000     0          
O352     O      0.050610000000     0.050610000000     0.949390000000     0          
O353     O      0.050610000000     0.550610000000     0.449390000000     0          
O354     O      0.550610000000     0.050610000000     0.449390000000     0          
O355     O      0.550610000000     0.550610000000     0.949390000000     0          
O356     O      0.949390000000     0.949390000000     0.949390000000     0          
O357     O      0.949390000000     0.449390000000     0.449390000000     0          
O358     O      0.449390000000     0.949390000000     0.449390000000     0          
O359     O      0.449390000000     0.449390000000     0.949390000000     0          
O360     O      0.050610000000     0.949390000000     0.050610000000     0          
O361     O      0.050610000000     0.449390000000     0.550610000000     0          
O362     O      0.550610000000     0.949390000000     0.550610000000     0          
O363     O      0.550610000000     0.449390000000     0.050610000000     0          
O364     O      0.949390000000     0.050610000000     0.050610000000     0          
O365     O      0.949390000000     0.550610000000     0.550610000000     0          
O366     O      0.449390000000     0.050610000000     0.550610000000     0          
O367     O      0.449390000000     0.550610000000     0.050610000000     0          
H368     H      0.281950000000     0.132560000000     0.000000000000     0          
H369     H      0.281950000000     0.632560000000     0.500000000000     0          
H370     H      0.781950000000     0.132560000000     0.500000000000     0          
H371     H      0.763650000000     0.577950000000     0.983930000000     0          
H372     H      0.844140000000     0.610090000000     0.016070000000     0          
H373     H      0.718050000000     0.867440000000     0.000000000000     0          
H374     H      0.718050000000     0.367440000000     0.500000000000     0          
H375     H      0.155860000000     0.889910000000     0.483930000000     0          
H376     H      0.236350000000     0.922050000000     0.516070000000     0          
H377     H      0.155860000000     0.389910000000     0.983930000000     0          
H378     H      0.236350000000     0.422050000000     0.016070000000     0          
H379     H      0.736350000000     0.077950000000     0.983930000000     0          
H380     H      0.655860000000     0.110090000000     0.016070000000     0          
H381     H      0.718050000000     0.632560000000     0.500000000000     0          
H382     H      0.218050000000     0.132560000000     0.500000000000     0          
H383     H      0.218050000000     0.632560000000     0.000000000000     0          
H384     H      0.281950000000     0.867440000000     0.000000000000     0          
H385     H      0.281950000000     0.367440000000     0.500000000000     0          
H386     H      0.844140000000     0.889910000000     0.483930000000     0          
H387     H      0.763650000000     0.922050000000     0.516070000000     0          
H388     H      0.781950000000     0.367440000000     0.000000000000     0          
H389     H      0.000000000000     0.281950000000     0.132560000000     0          
H390     H      0.000000000000     0.781950000000     0.632560000000     0          
H391     H      0.500000000000     0.281950000000     0.632560000000     0          
H392     H      0.500000000000     0.781950000000     0.132560000000     0          
H393     H      0.000000000000     0.718050000000     0.867440000000     0          
H394     H      0.000000000000     0.218050000000     0.367440000000     0          
H395     H      0.483930000000     0.655860000000     0.389910000000     0          
H396     H      0.516070000000     0.736350000000     0.422050000000     0          
H397     H      0.483930000000     0.155860000000     0.889910000000     0          
H398     H      0.516070000000     0.236350000000     0.922050000000     0          
H399     H      0.000000000000     0.718050000000     0.132560000000     0          
H400     H      0.000000000000     0.218050000000     0.632560000000     0          
H401     H      0.500000000000     0.718050000000     0.632560000000     0          
H402     H      0.483930000000     0.236350000000     0.077950000000     0          
H403     H      0.516070000000     0.155860000000     0.110090000000     0          
H404     H      0.000000000000     0.281950000000     0.867440000000     0          
H405     H      0.000000000000     0.781950000000     0.367440000000     0          
H406     H      0.500000000000     0.281950000000     0.367440000000     0          
H407     H      0.483930000000     0.844140000000     0.889910000000     0          
H408     H      0.516070000000     0.763650000000     0.922050000000     0          
H409     H      0.132560000000     0.000000000000     0.281950000000     0          
H410     H      0.132560000000     0.500000000000     0.781950000000     0          
H411     H      0.632560000000     0.000000000000     0.781950000000     0          
H412     H      0.581460000000     0.468550000000     0.272450000000     0          
H413     H      0.606580000000     0.531450000000     0.335350000000     0          
H414     H      0.867440000000     0.000000000000     0.718050000000     0          
H415     H      0.867440000000     0.500000000000     0.218050000000     0          
H416     H      0.367440000000     0.000000000000     0.218050000000     0          
H417     H      0.393420000000     0.468550000000     0.664650000000     0          
H418     H      0.418540000000     0.531450000000     0.727550000000     0          
H419     H      0.106580000000     0.968550000000     0.664650000000     0          
H420     H      0.081460000000     0.031450000000     0.727550000000     0          
H421     H      0.132560000000     0.500000000000     0.218050000000     0          
H422     H      0.606580000000     0.968550000000     0.164650000000     0          
H423     H      0.581460000000     0.031450000000     0.227550000000     0          
H424     H      0.606580000000     0.468550000000     0.664650000000     0          
H425     H      0.581460000000     0.531450000000     0.727550000000     0          
H426     H      0.867440000000     0.000000000000     0.281950000000     0          
H427     H      0.866050000000     0.488390000000     0.782310000000     0          
H428     H      0.776970000000     0.511610000000     0.805530000000     0          
H429     H      0.367440000000     0.000000000000     0.781950000000     0          
H430     H      0.367440000000     0.500000000000     0.281950000000     0          
H431     H      0.132560000000     0.281950000000     0.000000000000     0          
H432     H      0.132560000000     0.781950000000     0.500000000000     0          
H433     H      0.632560000000     0.281950000000     0.500000000000     0          
H434     H      0.632560000000     0.781950000000     0.000000000000     0          
H435     H      0.867440000000     0.718050000000     0.000000000000     0          
H436     H      0.893420000000     0.164650000000     0.468550000000     0          
H437     H      0.918540000000     0.227550000000     0.531450000000     0          
H438     H      0.367440000000     0.718050000000     0.500000000000     0          
H439     H      0.367440000000     0.218050000000     0.000000000000     0          
H440     H      0.106580000000     0.664650000000     0.968550000000     0          
H441     H      0.081460000000     0.727550000000     0.031450000000     0          
H442     H      0.132560000000     0.218050000000     0.500000000000     0          
H443     H      0.632560000000     0.718050000000     0.500000000000     0          
H444     H      0.632560000000     0.218050000000     0.000000000000     0          
H445     H      0.867440000000     0.281950000000     0.000000000000     0          
H446     H      0.867440000000     0.781950000000     0.500000000000     0          
H447     H      0.418540000000     0.272450000000     0.468550000000     0          
H448     H      0.393420000000     0.335350000000     0.531450000000     0          
H449     H      0.367440000000     0.781950000000     0.000000000000     0          
H450     H      0.281950000000     0.000000000000     0.867440000000     0          
H451     H      0.344140000000     0.483930000000     0.389910000000     0          
H452     H      0.263650000000     0.516070000000     0.422050000000     0          
H453     H      0.781950000000     0.000000000000     0.367440000000     0          
H454     H      0.718050000000     0.000000000000     0.132560000000     0          
H455     H      0.718050000000     0.500000000000     0.632560000000     0          
H456     H      0.218050000000     0.000000000000     0.632560000000     0          
H457     H      0.218050000000     0.500000000000     0.132560000000     0          
H458     H      0.655860000000     0.983930000000     0.889910000000     0          
H459     H      0.736350000000     0.016070000000     0.922050000000     0          
H460     H      0.718050000000     0.500000000000     0.367440000000     0          
H461     H      0.218050000000     0.000000000000     0.367440000000     0          
H462     H      0.218050000000     0.500000000000     0.867440000000     0          
H463     H      0.263650000000     0.983930000000     0.077950000000     0          
H464     H      0.344140000000     0.016070000000     0.110090000000     0          
H465     H      0.281950000000     0.500000000000     0.632560000000     0          
H466     H      0.781950000000     0.000000000000     0.632560000000     0          
H467     H      0.781950000000     0.500000000000     0.132560000000     0          
H468     H      0.968550000000     0.106580000000     0.664650000000     0          
H469     H      0.031450000000     0.081460000000     0.727550000000     0          
H470     H      0.968550000000     0.606580000000     0.164650000000     0          
H471     H      0.031450000000     0.581460000000     0.227550000000     0          
H472     H      0.500000000000     0.132560000000     0.218050000000     0          
H473     H      0.500000000000     0.632560000000     0.718050000000     0          
H474     H      0.000000000000     0.867440000000     0.281950000000     0          
H475     H      0.000000000000     0.367440000000     0.781950000000     0          
H476     H      0.500000000000     0.867440000000     0.781950000000     0          
H477     H      0.500000000000     0.367440000000     0.281950000000     0          
H478     H      0.000000000000     0.132560000000     0.281950000000     0          
H479     H      0.000000000000     0.632560000000     0.781950000000     0          
H480     H      0.500000000000     0.132560000000     0.781950000000     0          
H481     H      0.500000000000     0.632560000000     0.281950000000     0          
H482     H      0.968550000000     0.893420000000     0.664650000000     0          
H483     H      0.031450000000     0.918540000000     0.727550000000     0          
H484     H      0.968550000000     0.393420000000     0.164650000000     0          
H485     H      0.031450000000     0.418540000000     0.227550000000     0          
H486     H      0.500000000000     0.867440000000     0.218050000000     0          
H487     H      0.500000000000     0.367440000000     0.718050000000     0          
H488     H      0.755190000000     0.500000000000     0.812200000000     0          


