data_TISNUH

_audit_creation_method RASPA-1.0
_audit_creation_date 2020-11-2
_audit_author_name 'Rocio Bueno-Perez'

_cell_length_a    38.964
_cell_length_b    38.964
_cell_length_c    16.861
_cell_angle_alpha 90
_cell_angle_beta  90
_cell_angle_gamma 120
_cell_volume      22168.7

_symmetry_cell_setting          triclinic
_symmetry_space_group_name_Hall 'P 1'
_symmetry_space_group_name_H-M  'P 1'
_symmetry_Int_Tables_number     1

_symmetry_equiv_pos_as_xyz 'x,y,z'

loop_
_atom_site_label
_atom_site_type_symbol
_atom_site_fract_x
_atom_site_fract_y
_atom_site_fract_z
_atom_site_charge
C1       C      0.904100000000     0.398100000000     0.366100000000     0          
C2       C      0.872700000000     0.368500000000     0.314400000000     0          
C3       C      0.834400000000     0.360400000000     0.324500000000     0          
H4       H      0.828820000000     0.373420000000     0.364110000000     0          
C5       C      0.803800000000     0.332900000000     0.276700000000     0          
H6       H      0.778020000000     0.327800000000     0.284460000000     0          
C7       C      0.811900000000     0.313400000000     0.217600000000     0          
C8       C      0.852200000000     0.321800000000     0.207300000000     0          
H9       H      0.858350000000     0.308960000000     0.168150000000     0          
C10      C      0.881600000000     0.349300000000     0.256300000000     0          
H11      H      0.907590000000     0.354800000000     0.249990000000     0          
C12      C      0.780500000000     0.282600000000     0.167700000000     0          
C13      C      0.779300000000     0.281700000000     0.084900000000     0          
C14      C      0.809900000000     0.314700000000     0.038300000000     0          
H15      H      0.829940000000     0.336330000000     0.064900000000     0          
O16      O      0.940100000000     0.407800000000     0.350000000000     0          
O17      O      0.894100000000     0.412800000000     0.421200000000     0          
C18      C      0.601900000000     0.506000000000     0.366100000000     0          
C19      C      0.631500000000     0.504200000000     0.314400000000     0          
C20      C      0.639600000000     0.474000000000     0.324500000000     0          
H21      H      0.626580000000     0.455400000000     0.364110000000     0          
C22      C      0.667100000000     0.470900000000     0.276700000000     0          
H23      H      0.672200000000     0.450220000000     0.284460000000     0          
C24      C      0.686600000000     0.498500000000     0.217600000000     0          
C25      C      0.678200000000     0.530400000000     0.207300000000     0          
H26      H      0.691040000000     0.549390000000     0.168150000000     0          
C27      C      0.650700000000     0.532300000000     0.256300000000     0          
H28      H      0.645200000000     0.552790000000     0.249990000000     0          
C29      C      0.717400000000     0.497900000000     0.167700000000     0          
C30      C      0.718300000000     0.497600000000     0.084900000000     0          
C31      C      0.685300000000     0.495200000000     0.038300000000     0          
H32      H      0.663670000000     0.493610000000     0.064900000000     0          
O33      O      0.592200000000     0.532300000000     0.350000000000     0          
O34      O      0.587200000000     0.481300000000     0.421200000000     0          
C35      C      0.494000000000     0.095900000000     0.366100000000     0          
C36      C      0.495800000000     0.127300000000     0.314400000000     0          
C37      C      0.526000000000     0.165600000000     0.324500000000     0          
H38      H      0.544600000000     0.171180000000     0.364110000000     0          
C39      C      0.529100000000     0.196200000000     0.276700000000     0          
H40      H      0.549780000000     0.221980000000     0.284460000000     0          
C41      C      0.501500000000     0.188100000000     0.217600000000     0          
C42      C      0.469600000000     0.147800000000     0.207300000000     0          
H43      H      0.450610000000     0.141650000000     0.168150000000     0          
C44      C      0.467700000000     0.118400000000     0.256300000000     0          
H45      H      0.447210000000     0.092410000000     0.249990000000     0          
C46      C      0.502100000000     0.219500000000     0.167700000000     0          
C47      C      0.502400000000     0.220700000000     0.084900000000     0          
C48      C      0.504800000000     0.190100000000     0.038300000000     0          
H49      H      0.506390000000     0.170060000000     0.064900000000     0          
O50      O      0.467700000000     0.059900000000     0.350000000000     0          
O51      O      0.518700000000     0.105900000000     0.421200000000     0          
C52      C      0.095900000000     0.601900000000     0.366100000000     0          
C53      C      0.127300000000     0.631500000000     0.314400000000     0          
C54      C      0.165600000000     0.639600000000     0.324500000000     0          
H55      H      0.171180000000     0.626580000000     0.364110000000     0          
C56      C      0.196200000000     0.667100000000     0.276700000000     0          
H57      H      0.221980000000     0.672200000000     0.284460000000     0          
C58      C      0.188100000000     0.686600000000     0.217600000000     0          
C59      C      0.147800000000     0.678200000000     0.207300000000     0          
H60      H      0.141650000000     0.691040000000     0.168150000000     0          
C61      C      0.118400000000     0.650700000000     0.256300000000     0          
H62      H      0.092410000000     0.645200000000     0.249990000000     0          
C63      C      0.219500000000     0.717400000000     0.167700000000     0          
C64      C      0.220700000000     0.718300000000     0.084900000000     0          
C65      C      0.190100000000     0.685300000000     0.038300000000     0          
H66      H      0.170060000000     0.663670000000     0.064900000000     0          
O67      O      0.059900000000     0.592200000000     0.350000000000     0          
O68      O      0.105900000000     0.587200000000     0.421200000000     0          
C69      C      0.398100000000     0.494000000000     0.366100000000     0          
C70      C      0.368500000000     0.495800000000     0.314400000000     0          
C71      C      0.360400000000     0.526000000000     0.324500000000     0          
H72      H      0.373420000000     0.544600000000     0.364110000000     0          
C73      C      0.332900000000     0.529100000000     0.276700000000     0          
H74      H      0.327800000000     0.549780000000     0.284460000000     0          
C75      C      0.313400000000     0.501500000000     0.217600000000     0          
C76      C      0.321800000000     0.469600000000     0.207300000000     0          
H77      H      0.308960000000     0.450610000000     0.168150000000     0          
C78      C      0.349300000000     0.467700000000     0.256300000000     0          
H79      H      0.354800000000     0.447210000000     0.249990000000     0          
C80      C      0.282600000000     0.502100000000     0.167700000000     0          
C81      C      0.281700000000     0.502400000000     0.084900000000     0          
C82      C      0.314700000000     0.504800000000     0.038300000000     0          
H83      H      0.336330000000     0.506390000000     0.064900000000     0          
O84      O      0.407800000000     0.467700000000     0.350000000000     0          
O85      O      0.412800000000     0.518700000000     0.421200000000     0          
C86      C      0.506000000000     0.904100000000     0.366100000000     0          
C87      C      0.504200000000     0.872700000000     0.314400000000     0          
C88      C      0.474000000000     0.834400000000     0.324500000000     0          
H89      H      0.455400000000     0.828820000000     0.364110000000     0          
C90      C      0.470900000000     0.803800000000     0.276700000000     0          
H91      H      0.450220000000     0.778020000000     0.284460000000     0          
C92      C      0.498500000000     0.811900000000     0.217600000000     0          
C93      C      0.530400000000     0.852200000000     0.207300000000     0          
H94      H      0.549390000000     0.858350000000     0.168150000000     0          
C95      C      0.532300000000     0.881600000000     0.256300000000     0          
H96      H      0.552790000000     0.907590000000     0.249990000000     0          
C97      C      0.497900000000     0.780500000000     0.167700000000     0          
C98      C      0.497600000000     0.779300000000     0.084900000000     0          
C99      C      0.495200000000     0.809900000000     0.038300000000     0          
H100     H      0.493610000000     0.829940000000     0.064900000000     0          
O101     O      0.532300000000     0.940100000000     0.350000000000     0          
O102     O      0.481300000000     0.894100000000     0.421200000000     0          
C103     C      0.398100000000     0.904100000000     0.633900000000     0          
C104     C      0.368500000000     0.872700000000     0.685600000000     0          
C105     C      0.360400000000     0.834400000000     0.675500000000     0          
H106     H      0.373420000000     0.828820000000     0.635890000000     0          
C107     C      0.332900000000     0.803800000000     0.723300000000     0          
H108     H      0.327800000000     0.778020000000     0.715540000000     0          
C109     C      0.313400000000     0.811900000000     0.782400000000     0          
C110     C      0.321800000000     0.852200000000     0.792700000000     0          
H111     H      0.308960000000     0.858350000000     0.831850000000     0          
C112     C      0.349300000000     0.881600000000     0.743700000000     0          
H113     H      0.354800000000     0.907590000000     0.750010000000     0          
C114     C      0.282600000000     0.780500000000     0.832300000000     0          
C115     C      0.281700000000     0.779300000000     0.915100000000     0          
C116     C      0.314700000000     0.809900000000     0.961700000000     0          
H117     H      0.336330000000     0.829940000000     0.935100000000     0          
O118     O      0.407800000000     0.940100000000     0.650000000000     0          
O119     O      0.412800000000     0.894100000000     0.578800000000     0          
C120     C      0.506000000000     0.601900000000     0.633900000000     0          
C121     C      0.504200000000     0.631500000000     0.685600000000     0          
C122     C      0.474000000000     0.639600000000     0.675500000000     0          
H123     H      0.455400000000     0.626580000000     0.635890000000     0          
C124     C      0.470900000000     0.667100000000     0.723300000000     0          
H125     H      0.450220000000     0.672200000000     0.715540000000     0          
C126     C      0.498500000000     0.686600000000     0.782400000000     0          
C127     C      0.530400000000     0.678200000000     0.792700000000     0          
H128     H      0.549390000000     0.691040000000     0.831850000000     0          
C129     C      0.532300000000     0.650700000000     0.743700000000     0          
H130     H      0.552790000000     0.645200000000     0.750010000000     0          
C131     C      0.497900000000     0.717400000000     0.832300000000     0          
C132     C      0.497600000000     0.718300000000     0.915100000000     0          
C133     C      0.495200000000     0.685300000000     0.961700000000     0          
H134     H      0.493610000000     0.663670000000     0.935100000000     0          
O135     O      0.532300000000     0.592200000000     0.650000000000     0          
O136     O      0.481300000000     0.587200000000     0.578800000000     0          
C137     C      0.095900000000     0.494000000000     0.633900000000     0          
C138     C      0.127300000000     0.495800000000     0.685600000000     0          
C139     C      0.165600000000     0.526000000000     0.675500000000     0          
H140     H      0.171180000000     0.544600000000     0.635890000000     0          
C141     C      0.196200000000     0.529100000000     0.723300000000     0          
H142     H      0.221980000000     0.549780000000     0.715540000000     0          
C143     C      0.188100000000     0.501500000000     0.782400000000     0          
C144     C      0.147800000000     0.469600000000     0.792700000000     0          
H145     H      0.141650000000     0.450610000000     0.831850000000     0          
C146     C      0.118400000000     0.467700000000     0.743700000000     0          
H147     H      0.092410000000     0.447210000000     0.750010000000     0          
C148     C      0.219500000000     0.502100000000     0.832300000000     0          
C149     C      0.220700000000     0.502400000000     0.915100000000     0          
C150     C      0.190100000000     0.504800000000     0.961700000000     0          
H151     H      0.170060000000     0.506390000000     0.935100000000     0          
O152     O      0.059900000000     0.467700000000     0.650000000000     0          
O153     O      0.105900000000     0.518700000000     0.578800000000     0          
C154     C      0.601900000000     0.095900000000     0.633900000000     0          
C155     C      0.631500000000     0.127300000000     0.685600000000     0          
C156     C      0.639600000000     0.165600000000     0.675500000000     0          
H157     H      0.626580000000     0.171180000000     0.635890000000     0          
C158     C      0.667100000000     0.196200000000     0.723300000000     0          
H159     H      0.672200000000     0.221980000000     0.715540000000     0          
C160     C      0.686600000000     0.188100000000     0.782400000000     0          
C161     C      0.678200000000     0.147800000000     0.792700000000     0          
H162     H      0.691040000000     0.141650000000     0.831850000000     0          
C163     C      0.650700000000     0.118400000000     0.743700000000     0          
H164     H      0.645200000000     0.092410000000     0.750010000000     0          
C165     C      0.717400000000     0.219500000000     0.832300000000     0          
C166     C      0.718300000000     0.220700000000     0.915100000000     0          
C167     C      0.685300000000     0.190100000000     0.961700000000     0          
H168     H      0.663670000000     0.170060000000     0.935100000000     0          
O169     O      0.592200000000     0.059900000000     0.650000000000     0          
O170     O      0.587200000000     0.105900000000     0.578800000000     0          
C171     C      0.494000000000     0.398100000000     0.633900000000     0          
C172     C      0.495800000000     0.368500000000     0.685600000000     0          
C173     C      0.526000000000     0.360400000000     0.675500000000     0          
H174     H      0.544600000000     0.373420000000     0.635890000000     0          
C175     C      0.529100000000     0.332900000000     0.723300000000     0          
H176     H      0.549780000000     0.327800000000     0.715540000000     0          
C177     C      0.501500000000     0.313400000000     0.782400000000     0          
C178     C      0.469600000000     0.321800000000     0.792700000000     0          
H179     H      0.450610000000     0.308960000000     0.831850000000     0          
C180     C      0.467700000000     0.349300000000     0.743700000000     0          
H181     H      0.447210000000     0.354800000000     0.750010000000     0          
C182     C      0.502100000000     0.282600000000     0.832300000000     0          
C183     C      0.502400000000     0.281700000000     0.915100000000     0          
C184     C      0.504800000000     0.314700000000     0.961700000000     0          
H185     H      0.506390000000     0.336330000000     0.935100000000     0          
O186     O      0.467700000000     0.407800000000     0.650000000000     0          
O187     O      0.518700000000     0.412800000000     0.578800000000     0          
C188     C      0.904100000000     0.506000000000     0.633900000000     0          
C189     C      0.872700000000     0.504200000000     0.685600000000     0          
C190     C      0.834400000000     0.474000000000     0.675500000000     0          
H191     H      0.828820000000     0.455400000000     0.635890000000     0          
C192     C      0.803800000000     0.470900000000     0.723300000000     0          
H193     H      0.778020000000     0.450220000000     0.715540000000     0          
C194     C      0.811900000000     0.498500000000     0.782400000000     0          
C195     C      0.852200000000     0.530400000000     0.792700000000     0          
H196     H      0.858350000000     0.549390000000     0.831850000000     0          
C197     C      0.881600000000     0.532300000000     0.743700000000     0          
H198     H      0.907590000000     0.552790000000     0.750010000000     0          
C199     C      0.780500000000     0.497900000000     0.832300000000     0          
C200     C      0.779300000000     0.497600000000     0.915100000000     0          
C201     C      0.809900000000     0.495200000000     0.961700000000     0          
H202     H      0.829940000000     0.493610000000     0.935100000000     0          
O203     O      0.940100000000     0.532300000000     0.650000000000     0          
O204     O      0.894100000000     0.481300000000     0.578800000000     0          
C205     C      0.095900000000     0.601900000000     0.633900000000     0          
C206     C      0.127300000000     0.631500000000     0.685600000000     0          
C207     C      0.165600000000     0.639600000000     0.675500000000     0          
H208     H      0.171180000000     0.626580000000     0.635890000000     0          
C209     C      0.196200000000     0.667100000000     0.723300000000     0          
H210     H      0.221980000000     0.672200000000     0.715540000000     0          
C211     C      0.188100000000     0.686600000000     0.782400000000     0          
C212     C      0.147800000000     0.678200000000     0.792700000000     0          
H213     H      0.141650000000     0.691040000000     0.831850000000     0          
C214     C      0.118400000000     0.650700000000     0.743700000000     0          
H215     H      0.092410000000     0.645200000000     0.750010000000     0          
C216     C      0.219500000000     0.717400000000     0.832300000000     0          
C217     C      0.220700000000     0.718300000000     0.915100000000     0          
C218     C      0.190100000000     0.685300000000     0.961700000000     0          
H219     H      0.170060000000     0.663670000000     0.935100000000     0          
O220     O      0.059900000000     0.592200000000     0.650000000000     0          
O221     O      0.105900000000     0.587200000000     0.578800000000     0          
C222     C      0.398100000000     0.494000000000     0.633900000000     0          
C223     C      0.368500000000     0.495800000000     0.685600000000     0          
C224     C      0.360400000000     0.526000000000     0.675500000000     0          
H225     H      0.373420000000     0.544600000000     0.635890000000     0          
C226     C      0.332900000000     0.529100000000     0.723300000000     0          
H227     H      0.327800000000     0.549780000000     0.715540000000     0          
C228     C      0.313400000000     0.501500000000     0.782400000000     0          
C229     C      0.321800000000     0.469600000000     0.792700000000     0          
H230     H      0.308960000000     0.450610000000     0.831850000000     0          
C231     C      0.349300000000     0.467700000000     0.743700000000     0          
H232     H      0.354800000000     0.447210000000     0.750010000000     0          
C233     C      0.282600000000     0.502100000000     0.832300000000     0          
C234     C      0.281700000000     0.502400000000     0.915100000000     0          
C235     C      0.314700000000     0.504800000000     0.961700000000     0          
H236     H      0.336330000000     0.506390000000     0.935100000000     0          
O237     O      0.407800000000     0.467700000000     0.650000000000     0          
O238     O      0.412800000000     0.518700000000     0.578800000000     0          
C239     C      0.506000000000     0.904100000000     0.633900000000     0          
C240     C      0.504200000000     0.872700000000     0.685600000000     0          
C241     C      0.474000000000     0.834400000000     0.675500000000     0          
H242     H      0.455400000000     0.828820000000     0.635890000000     0          
C243     C      0.470900000000     0.803800000000     0.723300000000     0          
H244     H      0.450220000000     0.778020000000     0.715540000000     0          
C245     C      0.498500000000     0.811900000000     0.782400000000     0          
C246     C      0.530400000000     0.852200000000     0.792700000000     0          
H247     H      0.549390000000     0.858350000000     0.831850000000     0          
C248     C      0.532300000000     0.881600000000     0.743700000000     0          
H249     H      0.552790000000     0.907590000000     0.750010000000     0          
C250     C      0.497900000000     0.780500000000     0.832300000000     0          
C251     C      0.497600000000     0.779300000000     0.915100000000     0          
C252     C      0.495200000000     0.809900000000     0.961700000000     0          
H253     H      0.493610000000     0.829940000000     0.935100000000     0          
O254     O      0.532300000000     0.940100000000     0.650000000000     0          
O255     O      0.481300000000     0.894100000000     0.578800000000     0          
C256     C      0.904100000000     0.398100000000     0.633900000000     0          
C257     C      0.872700000000     0.368500000000     0.685600000000     0          
C258     C      0.834400000000     0.360400000000     0.675500000000     0          
H259     H      0.828820000000     0.373420000000     0.635890000000     0          
C260     C      0.803800000000     0.332900000000     0.723300000000     0          
H261     H      0.778020000000     0.327800000000     0.715540000000     0          
C262     C      0.811900000000     0.313400000000     0.782400000000     0          
C263     C      0.852200000000     0.321800000000     0.792700000000     0          
H264     H      0.858350000000     0.308960000000     0.831850000000     0          
C265     C      0.881600000000     0.349300000000     0.743700000000     0          
H266     H      0.907590000000     0.354800000000     0.750010000000     0          
C267     C      0.780500000000     0.282600000000     0.832300000000     0          
C268     C      0.779300000000     0.281700000000     0.915100000000     0          
C269     C      0.809900000000     0.314700000000     0.961700000000     0          
H270     H      0.829940000000     0.336330000000     0.935100000000     0          
O271     O      0.940100000000     0.407800000000     0.650000000000     0          
O272     O      0.894100000000     0.412800000000     0.578800000000     0          
C273     C      0.601900000000     0.506000000000     0.633900000000     0          
C274     C      0.631500000000     0.504200000000     0.685600000000     0          
C275     C      0.639600000000     0.474000000000     0.675500000000     0          
H276     H      0.626580000000     0.455400000000     0.635890000000     0          
C277     C      0.667100000000     0.470900000000     0.723300000000     0          
H278     H      0.672200000000     0.450220000000     0.715540000000     0          
C279     C      0.686600000000     0.498500000000     0.782400000000     0          
C280     C      0.678200000000     0.530400000000     0.792700000000     0          
H281     H      0.691040000000     0.549390000000     0.831850000000     0          
C282     C      0.650700000000     0.532300000000     0.743700000000     0          
H283     H      0.645200000000     0.552790000000     0.750010000000     0          
C284     C      0.717400000000     0.497900000000     0.832300000000     0          
C285     C      0.718300000000     0.497600000000     0.915100000000     0          
C286     C      0.685300000000     0.495200000000     0.961700000000     0          
H287     H      0.663670000000     0.493610000000     0.935100000000     0          
O288     O      0.592200000000     0.532300000000     0.650000000000     0          
O289     O      0.587200000000     0.481300000000     0.578800000000     0          
C290     C      0.494000000000     0.095900000000     0.633900000000     0          
C291     C      0.495800000000     0.127300000000     0.685600000000     0          
C292     C      0.526000000000     0.165600000000     0.675500000000     0          
H293     H      0.544600000000     0.171180000000     0.635890000000     0          
C294     C      0.529100000000     0.196200000000     0.723300000000     0          
H295     H      0.549780000000     0.221980000000     0.715540000000     0          
C296     C      0.501500000000     0.188100000000     0.782400000000     0          
C297     C      0.469600000000     0.147800000000     0.792700000000     0          
H298     H      0.450610000000     0.141650000000     0.831850000000     0          
C299     C      0.467700000000     0.118400000000     0.743700000000     0          
H300     H      0.447210000000     0.092410000000     0.750010000000     0          
C301     C      0.502100000000     0.219500000000     0.832300000000     0          
C302     C      0.502400000000     0.220700000000     0.915100000000     0          
C303     C      0.504800000000     0.190100000000     0.961700000000     0          
H304     H      0.506390000000     0.170060000000     0.935100000000     0          
O305     O      0.467700000000     0.059900000000     0.650000000000     0          
O306     O      0.518700000000     0.105900000000     0.578800000000     0          
C307     C      0.601900000000     0.095900000000     0.366100000000     0          
C308     C      0.631500000000     0.127300000000     0.314400000000     0          
C309     C      0.639600000000     0.165600000000     0.324500000000     0          
H310     H      0.626580000000     0.171180000000     0.364110000000     0          
C311     C      0.667100000000     0.196200000000     0.276700000000     0          
H312     H      0.672200000000     0.221980000000     0.284460000000     0          
C313     C      0.686600000000     0.188100000000     0.217600000000     0          
C314     C      0.678200000000     0.147800000000     0.207300000000     0          
H315     H      0.691040000000     0.141650000000     0.168150000000     0          
C316     C      0.650700000000     0.118400000000     0.256300000000     0          
H317     H      0.645200000000     0.092410000000     0.249990000000     0          
C318     C      0.717400000000     0.219500000000     0.167700000000     0          
C319     C      0.718300000000     0.220700000000     0.084900000000     0          
C320     C      0.685300000000     0.190100000000     0.038300000000     0          
H321     H      0.663670000000     0.170060000000     0.064900000000     0          
O322     O      0.592200000000     0.059900000000     0.350000000000     0          
O323     O      0.587200000000     0.105900000000     0.421200000000     0          
C324     C      0.494000000000     0.398100000000     0.366100000000     0          
C325     C      0.495800000000     0.368500000000     0.314400000000     0          
C326     C      0.526000000000     0.360400000000     0.324500000000     0          
H327     H      0.544600000000     0.373420000000     0.364110000000     0          
C328     C      0.529100000000     0.332900000000     0.276700000000     0          
H329     H      0.549780000000     0.327800000000     0.284460000000     0          
C330     C      0.501500000000     0.313400000000     0.217600000000     0          
C331     C      0.469600000000     0.321800000000     0.207300000000     0          
H332     H      0.450610000000     0.308960000000     0.168150000000     0          
C333     C      0.467700000000     0.349300000000     0.256300000000     0          
H334     H      0.447210000000     0.354800000000     0.249990000000     0          
C335     C      0.502100000000     0.282600000000     0.167700000000     0          
C336     C      0.502400000000     0.281700000000     0.084900000000     0          
C337     C      0.504800000000     0.314700000000     0.038300000000     0          
H338     H      0.506390000000     0.336330000000     0.064900000000     0          
O339     O      0.467700000000     0.407800000000     0.350000000000     0          
O340     O      0.518700000000     0.412800000000     0.421200000000     0          
C341     C      0.904100000000     0.506000000000     0.366100000000     0          
C342     C      0.872700000000     0.504200000000     0.314400000000     0          
C343     C      0.834400000000     0.474000000000     0.324500000000     0          
H344     H      0.828820000000     0.455400000000     0.364110000000     0          
C345     C      0.803800000000     0.470900000000     0.276700000000     0          
H346     H      0.778020000000     0.450220000000     0.284460000000     0          
C347     C      0.811900000000     0.498500000000     0.217600000000     0          
C348     C      0.852200000000     0.530400000000     0.207300000000     0          
H349     H      0.858350000000     0.549390000000     0.168150000000     0          
C350     C      0.881600000000     0.532300000000     0.256300000000     0          
H351     H      0.907590000000     0.552790000000     0.249990000000     0          
C352     C      0.780500000000     0.497900000000     0.167700000000     0          
C353     C      0.779300000000     0.497600000000     0.084900000000     0          
C354     C      0.809900000000     0.495200000000     0.038300000000     0          
H355     H      0.829940000000     0.493610000000     0.064900000000     0          
O356     O      0.940100000000     0.532300000000     0.350000000000     0          
O357     O      0.894100000000     0.481300000000     0.421200000000     0          
C358     C      0.398100000000     0.904100000000     0.366100000000     0          
C359     C      0.368500000000     0.872700000000     0.314400000000     0          
C360     C      0.360400000000     0.834400000000     0.324500000000     0          
H361     H      0.373420000000     0.828820000000     0.364110000000     0          
C362     C      0.332900000000     0.803800000000     0.276700000000     0          
H363     H      0.327800000000     0.778020000000     0.284460000000     0          
C364     C      0.313400000000     0.811900000000     0.217600000000     0          
C365     C      0.321800000000     0.852200000000     0.207300000000     0          
H366     H      0.308960000000     0.858350000000     0.168150000000     0          
C367     C      0.349300000000     0.881600000000     0.256300000000     0          
H368     H      0.354800000000     0.907590000000     0.249990000000     0          
C369     C      0.282600000000     0.780500000000     0.167700000000     0          
C370     C      0.281700000000     0.779300000000     0.084900000000     0          
C371     C      0.314700000000     0.809900000000     0.038300000000     0          
H372     H      0.336330000000     0.829940000000     0.064900000000     0          
O373     O      0.407800000000     0.940100000000     0.350000000000     0          
O374     O      0.412800000000     0.894100000000     0.421200000000     0          
C375     C      0.506000000000     0.601900000000     0.366100000000     0          
C376     C      0.504200000000     0.631500000000     0.314400000000     0          
C377     C      0.474000000000     0.639600000000     0.324500000000     0          
H378     H      0.455400000000     0.626580000000     0.364110000000     0          
C379     C      0.470900000000     0.667100000000     0.276700000000     0          
H380     H      0.450220000000     0.672200000000     0.284460000000     0          
C381     C      0.498500000000     0.686600000000     0.217600000000     0          
C382     C      0.530400000000     0.678200000000     0.207300000000     0          
H383     H      0.549390000000     0.691040000000     0.168150000000     0          
C384     C      0.532300000000     0.650700000000     0.256300000000     0          
H385     H      0.552790000000     0.645200000000     0.249990000000     0          
C386     C      0.497900000000     0.717400000000     0.167700000000     0          
C387     C      0.497600000000     0.718300000000     0.084900000000     0          
C388     C      0.495200000000     0.685300000000     0.038300000000     0          
H389     H      0.493610000000     0.663670000000     0.064900000000     0          
O390     O      0.532300000000     0.592200000000     0.350000000000     0          
O391     O      0.481300000000     0.587200000000     0.421200000000     0          
C392     C      0.095900000000     0.494000000000     0.366100000000     0          
C393     C      0.127300000000     0.495800000000     0.314400000000     0          
C394     C      0.165600000000     0.526000000000     0.324500000000     0          
H395     H      0.171180000000     0.544600000000     0.364110000000     0          
C396     C      0.196200000000     0.529100000000     0.276700000000     0          
H397     H      0.221980000000     0.549780000000     0.284460000000     0          
C398     C      0.188100000000     0.501500000000     0.217600000000     0          
C399     C      0.147800000000     0.469600000000     0.207300000000     0          
H400     H      0.141650000000     0.450610000000     0.168150000000     0          
C401     C      0.118400000000     0.467700000000     0.256300000000     0          
H402     H      0.092410000000     0.447210000000     0.249990000000     0          
C403     C      0.219500000000     0.502100000000     0.167700000000     0          
C404     C      0.220700000000     0.502400000000     0.084900000000     0          
C405     C      0.190100000000     0.504800000000     0.038300000000     0          
H406     H      0.170060000000     0.506390000000     0.064900000000     0          
O407     O      0.059900000000     0.467700000000     0.350000000000     0          
O408     O      0.105900000000     0.518700000000     0.421200000000     0          
C409     C      0.748700000000     0.251300000000     0.205600000000     0          
H410     H      0.748260000000     0.251740000000     0.260760000000     0          
C411     C      0.749000000000     0.251000000000     0.041200000000     0          
C412     C      0.748700000000     0.497400000000     0.205600000000     0          
H413     H      0.748260000000     0.496520000000     0.260760000000     0          
C414     C      0.749000000000     0.498000000000     0.041200000000     0          
C415     C      0.502600000000     0.251300000000     0.205600000000     0          
H416     H      0.503480000000     0.251740000000     0.260760000000     0          
C417     C      0.502000000000     0.251000000000     0.041200000000     0          
C418     C      0.251300000000     0.748700000000     0.205600000000     0          
H419     H      0.251740000000     0.748260000000     0.260760000000     0          
C420     C      0.251000000000     0.749000000000     0.041200000000     0          
C421     C      0.251300000000     0.502600000000     0.205600000000     0          
H422     H      0.251740000000     0.503480000000     0.260760000000     0          
C423     C      0.251000000000     0.502000000000     0.041200000000     0          
C424     C      0.497400000000     0.748700000000     0.205600000000     0          
H425     H      0.496520000000     0.748260000000     0.260760000000     0          
C426     C      0.498000000000     0.749000000000     0.041200000000     0          
C427     C      0.251300000000     0.748700000000     0.794400000000     0          
H428     H      0.251740000000     0.748260000000     0.739240000000     0          
C429     C      0.251000000000     0.749000000000     0.958800000000     0          
C430     C      0.497400000000     0.748700000000     0.794400000000     0          
H431     H      0.496520000000     0.748260000000     0.739240000000     0          
C432     C      0.498000000000     0.749000000000     0.958800000000     0          
C433     C      0.251300000000     0.502600000000     0.794400000000     0          
H434     H      0.251740000000     0.503480000000     0.739240000000     0          
C435     C      0.251000000000     0.502000000000     0.958800000000     0          
C436     C      0.748700000000     0.251300000000     0.794400000000     0          
H437     H      0.748260000000     0.251740000000     0.739240000000     0          
C438     C      0.749000000000     0.251000000000     0.958800000000     0          
C439     C      0.502600000000     0.251300000000     0.794400000000     0          
H440     H      0.503480000000     0.251740000000     0.739240000000     0          
C441     C      0.502000000000     0.251000000000     0.958800000000     0          
C442     C      0.748700000000     0.497400000000     0.794400000000     0          
H443     H      0.748260000000     0.496520000000     0.739240000000     0          
C444     C      0.749000000000     0.498000000000     0.958800000000     0          
O445     O      0.964300000000     0.482150000000     0.396000000000     0          
O446     O      0.517850000000     0.482150000000     0.396000000000     0          
O447     O      0.517850000000     0.035700000000     0.396000000000     0          
O448     O      0.035700000000     0.517850000000     0.396000000000     0          
O449     O      0.482150000000     0.517850000000     0.396000000000     0          
O450     O      0.482150000000     0.964300000000     0.396000000000     0          
O451     O      0.482150000000     0.964300000000     0.604000000000     0          
O452     O      0.482150000000     0.517850000000     0.604000000000     0          
O453     O      0.035700000000     0.517850000000     0.604000000000     0          
O454     O      0.517850000000     0.035700000000     0.604000000000     0          
O455     O      0.517850000000     0.482150000000     0.604000000000     0          
O456     O      0.964300000000     0.482150000000     0.604000000000     0          
O457     O      0.964200000000     0.434000000000     0.500000000000     0          
O458     O      0.566000000000     0.530200000000     0.500000000000     0          
O459     O      0.469800000000     0.035800000000     0.500000000000     0          
O460     O      0.035800000000     0.566000000000     0.500000000000     0          
O461     O      0.434000000000     0.469800000000     0.500000000000     0          
O462     O      0.530200000000     0.964200000000     0.500000000000     0          
O463     O      0.434000000000     0.964200000000     0.500000000000     0          
O464     O      0.530200000000     0.566000000000     0.500000000000     0          
O465     O      0.035800000000     0.469800000000     0.500000000000     0          
O466     O      0.566000000000     0.035800000000     0.500000000000     0          
O467     O      0.469800000000     0.434000000000     0.500000000000     0          
O468     O      0.964200000000     0.530200000000     0.500000000000     0          
O469     O      0.000000000000     0.457900000000     0.260400000000     0          
O470     O      0.000000000000     0.397000000000     0.397200000000     0          
Zr471    Zr     0.000000000000     0.454620000000     0.395310000000     0          
O472     O      0.542100000000     0.542100000000     0.260400000000     0          
O473     O      0.603000000000     0.603000000000     0.397200000000     0          
Zr474    Zr     0.545380000000     0.545380000000     0.395310000000     0          
O475     O      0.457900000000     0.000000000000     0.260400000000     0          
O476     O      0.397000000000     0.000000000000     0.397200000000     0          
Zr477    Zr     0.454620000000     0.000000000000     0.395310000000     0          
O478     O      0.000000000000     0.542100000000     0.260400000000     0          
O479     O      0.000000000000     0.603000000000     0.397200000000     0          
Zr480    Zr     0.000000000000     0.545380000000     0.395310000000     0          
O481     O      0.457900000000     0.457900000000     0.260400000000     0          
O482     O      0.397000000000     0.397000000000     0.397200000000     0          
Zr483    Zr     0.454620000000     0.454620000000     0.395310000000     0          
O484     O      0.542100000000     0.000000000000     0.260400000000     0          
O485     O      0.603000000000     0.000000000000     0.397200000000     0          
Zr486    Zr     0.545380000000     0.000000000000     0.395310000000     0          
O487     O      0.457900000000     0.000000000000     0.739600000000     0          
O488     O      0.397000000000     0.000000000000     0.602800000000     0          
Zr489    Zr     0.454620000000     0.000000000000     0.604690000000     0          
O490     O      0.542100000000     0.542100000000     0.739600000000     0          
O491     O      0.603000000000     0.603000000000     0.602800000000     0          
Zr492    Zr     0.545380000000     0.545380000000     0.604690000000     0          
O493     O      0.000000000000     0.457900000000     0.739600000000     0          
O494     O      0.000000000000     0.397000000000     0.602800000000     0          
Zr495    Zr     0.000000000000     0.454620000000     0.604690000000     0          
O496     O      0.542100000000     0.000000000000     0.739600000000     0          
O497     O      0.603000000000     0.000000000000     0.602800000000     0          
Zr498    Zr     0.545380000000     0.000000000000     0.604690000000     0          
O499     O      0.457900000000     0.457900000000     0.739600000000     0          
O500     O      0.397000000000     0.397000000000     0.602800000000     0          
Zr501    Zr     0.454620000000     0.454620000000     0.604690000000     0          
O502     O      0.000000000000     0.542100000000     0.739600000000     0          
O503     O      0.000000000000     0.603000000000     0.602800000000     0          
Zr504    Zr     0.000000000000     0.545380000000     0.604690000000     0          
Zr505    Zr     0.927750000000     0.463880000000     0.500000000000     0          
Zr506    Zr     0.536120000000     0.463880000000     0.500000000000     0          
Zr507    Zr     0.536120000000     0.072250000000     0.500000000000     0          
Zr508    Zr     0.072250000000     0.536120000000     0.500000000000     0          
Zr509    Zr     0.463880000000     0.536120000000     0.500000000000     0          
Zr510    Zr     0.463880000000     0.927750000000     0.500000000000     0          


