data_WOGBAY

_audit_creation_method RASPA-1.0
_audit_creation_date 2020-4-3
_audit_author_name 'Rocio Bueno-Perez'

_cell_length_a    25.3505
_cell_length_b    25.3505
_cell_length_c    25.3505
_cell_angle_alpha 90
_cell_angle_beta  90
_cell_angle_gamma 90
_cell_volume      16291.4

_symmetry_cell_setting          cubic
_symmetry_space_group_name_Hall 'P 1'
_symmetry_space_group_name_H-M  'P 1'
_symmetry_Int_Tables_number     1

_symmetry_equiv_pos_as_xyz 'x,y,z'

loop_
_atom_site_label
_atom_site_type_symbol
_atom_site_fract_x
_atom_site_fract_y
_atom_site_fract_z
_atom_site_charge
Zr1      Zr     0.506400000000     0.499900000000     0.406660000000     0          
O1       O      0.430240000000     0.523700000000     0.374200000000     0          
O2       O      0.360000000000     0.503300000000     0.427400000000     0          
C1       C      0.383710000000     0.507100000000     0.383100000000     0          
C2       C      0.345420000000     0.522900000000     0.338690000000     0          
N1       N      0.319570000000     0.533600000000     0.245200000000     0          
C3       C      0.359900000000     0.520000000000     0.278290000000     0          
C4       C      0.273400000000     0.526000000000     0.269700000000     0          
S1       S      0.280600000000     0.519500000000     0.333200000000     0          
O3       O      0.584600000000     0.480100000000     0.378100000000     0          
O4       O      0.646200000000     0.515000000000     0.434500000000     0          
C5       C      0.627630000000     0.503500000000     0.388900000000     0          
C6       C      0.672210000000     0.486400000000     0.351320000000     0          
N2       N      0.763900000000     0.503000000000     0.321920000000     0          
C7       C      0.736300000000     0.499000000000     0.277270000000     0          
C8       C      0.731500000000     0.499000000000     0.364500000000     0          
S2       S      0.673400000000     0.492100000000     0.286700000000     0          
O5       O      0.445300000000     0.546700000000     0.438600000000     0          
H        H      0.744440000000     0.504060000000     0.407270000000     0          
O6       O      0.452170000000     0.452170000000     0.452170000000     0          
H1       H      0.433170000000     0.433170000000     0.433170000000     0          
Zr1      Zr     0.993600000000     0.000100000000     0.406660000000     0          
O1       O      0.069760000000     0.976300000000     0.374200000000     0          
O2       O      0.140000000000     0.996700000000     0.427400000000     0          
C1       C      0.116290000000     0.992900000000     0.383100000000     0          
C2       C      0.154580000000     0.977100000000     0.338690000000     0          
N1       N      0.180430000000     0.966400000000     0.245200000000     0          
C3       C      0.140100000000     0.980000000000     0.278290000000     0          
C4       C      0.226600000000     0.974000000000     0.269700000000     0          
S1       S      0.219400000000     0.980500000000     0.333200000000     0          
O3       O      0.915400000000     0.019900000000     0.378100000000     0          
O4       O      0.853800000000     0.985000000000     0.434500000000     0          
C5       C      0.872370000000     0.996500000000     0.388900000000     0          
C6       C      0.827790000000     0.013600000000     0.351320000000     0          
N2       N      0.736100000000     0.997000000000     0.321920000000     0          
C7       C      0.763700000000     0.001000000000     0.277270000000     0          
C8       C      0.768500000000     0.001000000000     0.364500000000     0          
S2       S      0.826600000000     0.007900000000     0.286700000000     0          
O5       O      0.054700000000     0.953300000000     0.438600000000     0          
H        H      0.755560000000     0.995940000000     0.407270000000     0          
O6       O      0.047830000000     0.047830000000     0.452170000000     0          
H1       H      0.066830000000     0.066830000000     0.433170000000     0          
Zr1      Zr     0.506400000000     0.000100000000     0.093340000000     0          
O1       O      0.430240000000     0.976300000000     0.125800000000     0          
O2       O      0.360000000000     0.996700000000     0.072600000000     0          
C1       C      0.383710000000     0.992900000000     0.116900000000     0          
C2       C      0.345420000000     0.977100000000     0.161310000000     0          
N1       N      0.319570000000     0.966400000000     0.254800000000     0          
C3       C      0.359900000000     0.980000000000     0.221710000000     0          
C4       C      0.273400000000     0.974000000000     0.230300000000     0          
S1       S      0.280600000000     0.980500000000     0.166800000000     0          
O3       O      0.584600000000     0.019900000000     0.121900000000     0          
O4       O      0.646200000000     0.985000000000     0.065500000000     0          
C5       C      0.627630000000     0.996500000000     0.111100000000     0          
C6       C      0.672210000000     0.013600000000     0.148680000000     0          
N2       N      0.763900000000     0.997000000000     0.178080000000     0          
C7       C      0.736300000000     0.001000000000     0.222730000000     0          
C8       C      0.731500000000     0.001000000000     0.135500000000     0          
S2       S      0.673400000000     0.007900000000     0.213300000000     0          
O5       O      0.445300000000     0.953300000000     0.061400000000     0          
H        H      0.744440000000     0.995940000000     0.092730000000     0          
O6       O      0.452170000000     0.047830000000     0.047830000000     0          
H1       H      0.433170000000     0.066830000000     0.066830000000     0          
Zr1      Zr     0.993600000000     0.499900000000     0.093340000000     0          
O1       O      0.069760000000     0.523700000000     0.125800000000     0          
O2       O      0.140000000000     0.503300000000     0.072600000000     0          
C1       C      0.116290000000     0.507100000000     0.116900000000     0          
C2       C      0.154580000000     0.522900000000     0.161310000000     0          
N1       N      0.180430000000     0.533600000000     0.254800000000     0          
C3       C      0.140100000000     0.520000000000     0.221710000000     0          
C4       C      0.226600000000     0.526000000000     0.230300000000     0          
S1       S      0.219400000000     0.519500000000     0.166800000000     0          
O3       O      0.915400000000     0.480100000000     0.121900000000     0          
O4       O      0.853800000000     0.515000000000     0.065500000000     0          
C5       C      0.872370000000     0.503500000000     0.111100000000     0          
C6       C      0.827790000000     0.486400000000     0.148680000000     0          
N2       N      0.736100000000     0.503000000000     0.178080000000     0          
C7       C      0.763700000000     0.499000000000     0.222730000000     0          
C8       C      0.768500000000     0.499000000000     0.135500000000     0          
S2       S      0.826600000000     0.492100000000     0.213300000000     0          
O5       O      0.054700000000     0.546700000000     0.061400000000     0          
H        H      0.755560000000     0.504060000000     0.092730000000     0          
O6       O      0.047830000000     0.452170000000     0.047830000000     0          
H1       H      0.066830000000     0.433170000000     0.066830000000     0          
Zr1      Zr     0.406660000000     0.506400000000     0.499900000000     0          
O1       O      0.374200000000     0.430240000000     0.523700000000     0          
O2       O      0.427400000000     0.360000000000     0.503300000000     0          
C1       C      0.383100000000     0.383710000000     0.507100000000     0          
C2       C      0.338690000000     0.345420000000     0.522900000000     0          
N1       N      0.245200000000     0.319570000000     0.533600000000     0          
C3       C      0.278290000000     0.359900000000     0.520000000000     0          
C4       C      0.269700000000     0.273400000000     0.526000000000     0          
S1       S      0.333200000000     0.280600000000     0.519500000000     0          
O3       O      0.378100000000     0.584600000000     0.480100000000     0          
O4       O      0.434500000000     0.646200000000     0.515000000000     0          
C5       C      0.388900000000     0.627630000000     0.503500000000     0          
C6       C      0.351320000000     0.672210000000     0.486400000000     0          
N2       N      0.321920000000     0.763900000000     0.503000000000     0          
C7       C      0.277270000000     0.736300000000     0.499000000000     0          
C8       C      0.364500000000     0.731500000000     0.499000000000     0          
S2       S      0.286700000000     0.673400000000     0.492100000000     0          
O5       O      0.438600000000     0.445300000000     0.546700000000     0          
H        H      0.407270000000     0.744440000000     0.504060000000     0          
Zr1      Zr     0.093340000000     0.993600000000     0.499900000000     0          
O1       O      0.125800000000     0.069760000000     0.523700000000     0          
O2       O      0.072600000000     0.140000000000     0.503300000000     0          
C1       C      0.116900000000     0.116290000000     0.507100000000     0          
C2       C      0.161310000000     0.154580000000     0.522900000000     0          
N1       N      0.254800000000     0.180430000000     0.533600000000     0          
C3       C      0.221710000000     0.140100000000     0.520000000000     0          
C4       C      0.230300000000     0.226600000000     0.526000000000     0          
S1       S      0.166800000000     0.219400000000     0.519500000000     0          
O3       O      0.121900000000     0.915400000000     0.480100000000     0          
O4       O      0.065500000000     0.853800000000     0.515000000000     0          
C5       C      0.111100000000     0.872370000000     0.503500000000     0          
C6       C      0.148680000000     0.827790000000     0.486400000000     0          
N2       N      0.178080000000     0.736100000000     0.503000000000     0          
C7       C      0.222730000000     0.763700000000     0.499000000000     0          
C8       C      0.135500000000     0.768500000000     0.499000000000     0          
S2       S      0.213300000000     0.826600000000     0.492100000000     0          
O5       O      0.061400000000     0.054700000000     0.546700000000     0          
H        H      0.092730000000     0.755560000000     0.504060000000     0          
Zr1      Zr     0.406660000000     0.993600000000     0.000100000000     0          
O1       O      0.374200000000     0.069760000000     0.976300000000     0          
O2       O      0.427400000000     0.140000000000     0.996700000000     0          
C1       C      0.383100000000     0.116290000000     0.992900000000     0          
C2       C      0.338690000000     0.154580000000     0.977100000000     0          
N1       N      0.245200000000     0.180430000000     0.966400000000     0          
C3       C      0.278290000000     0.140100000000     0.980000000000     0          
C4       C      0.269700000000     0.226600000000     0.974000000000     0          
S1       S      0.333200000000     0.219400000000     0.980500000000     0          
O3       O      0.378100000000     0.915400000000     0.019900000000     0          
O4       O      0.434500000000     0.853800000000     0.985000000000     0          
C5       C      0.388900000000     0.872370000000     0.996500000000     0          
C6       C      0.351320000000     0.827790000000     0.013600000000     0          
N2       N      0.321920000000     0.736100000000     0.997000000000     0          
C7       C      0.277270000000     0.763700000000     0.001000000000     0          
C8       C      0.364500000000     0.768500000000     0.001000000000     0          
S2       S      0.286700000000     0.826600000000     0.007900000000     0          
O5       O      0.438600000000     0.054700000000     0.953300000000     0          
H        H      0.407270000000     0.755560000000     0.995940000000     0          
Zr1      Zr     0.093340000000     0.506400000000     0.000100000000     0          
O1       O      0.125800000000     0.430240000000     0.976300000000     0          
O2       O      0.072600000000     0.360000000000     0.996700000000     0          
C1       C      0.116900000000     0.383710000000     0.992900000000     0          
C2       C      0.161310000000     0.345420000000     0.977100000000     0          
N1       N      0.254800000000     0.319570000000     0.966400000000     0          
C3       C      0.221710000000     0.359900000000     0.980000000000     0          
C4       C      0.230300000000     0.273400000000     0.974000000000     0          
S1       S      0.166800000000     0.280600000000     0.980500000000     0          
O3       O      0.121900000000     0.584600000000     0.019900000000     0          
O4       O      0.065500000000     0.646200000000     0.985000000000     0          
C5       C      0.111100000000     0.627630000000     0.996500000000     0          
C6       C      0.148680000000     0.672210000000     0.013600000000     0          
N2       N      0.178080000000     0.763900000000     0.997000000000     0          
C7       C      0.222730000000     0.736300000000     0.001000000000     0          
C8       C      0.135500000000     0.731500000000     0.001000000000     0          
S2       S      0.213300000000     0.673400000000     0.007900000000     0          
O5       O      0.061400000000     0.445300000000     0.953300000000     0          
H        H      0.092730000000     0.744440000000     0.995940000000     0          
Zr1      Zr     0.499900000000     0.406660000000     0.506400000000     0          
O1       O      0.523700000000     0.374200000000     0.430240000000     0          
O2       O      0.503300000000     0.427400000000     0.360000000000     0          
C1       C      0.507100000000     0.383100000000     0.383710000000     0          
C2       C      0.522900000000     0.338690000000     0.345420000000     0          
N1       N      0.533600000000     0.245200000000     0.319570000000     0          
C3       C      0.520000000000     0.278290000000     0.359900000000     0          
C4       C      0.526000000000     0.269700000000     0.273400000000     0          
S1       S      0.519500000000     0.333200000000     0.280600000000     0          
O3       O      0.480100000000     0.378100000000     0.584600000000     0          
O4       O      0.515000000000     0.434500000000     0.646200000000     0          
C5       C      0.503500000000     0.388900000000     0.627630000000     0          
C6       C      0.486400000000     0.351320000000     0.672210000000     0          
N2       N      0.503000000000     0.321920000000     0.763900000000     0          
C7       C      0.499000000000     0.277270000000     0.736300000000     0          
C8       C      0.499000000000     0.364500000000     0.731500000000     0          
S2       S      0.492100000000     0.286700000000     0.673400000000     0          
O5       O      0.546700000000     0.438600000000     0.445300000000     0          
H        H      0.504060000000     0.407270000000     0.744440000000     0          
Zr1      Zr     0.499900000000     0.093340000000     0.993600000000     0          
O1       O      0.523700000000     0.125800000000     0.069760000000     0          
O2       O      0.503300000000     0.072600000000     0.140000000000     0          
C1       C      0.507100000000     0.116900000000     0.116290000000     0          
C2       C      0.522900000000     0.161310000000     0.154580000000     0          
N1       N      0.533600000000     0.254800000000     0.180430000000     0          
C3       C      0.520000000000     0.221710000000     0.140100000000     0          
C4       C      0.526000000000     0.230300000000     0.226600000000     0          
S1       S      0.519500000000     0.166800000000     0.219400000000     0          
O3       O      0.480100000000     0.121900000000     0.915400000000     0          
O4       O      0.515000000000     0.065500000000     0.853800000000     0          
C5       C      0.503500000000     0.111100000000     0.872370000000     0          
C6       C      0.486400000000     0.148680000000     0.827790000000     0          
N2       N      0.503000000000     0.178080000000     0.736100000000     0          
C7       C      0.499000000000     0.222730000000     0.763700000000     0          
C8       C      0.499000000000     0.135500000000     0.768500000000     0          
S2       S      0.492100000000     0.213300000000     0.826600000000     0          
O5       O      0.546700000000     0.061400000000     0.054700000000     0          
H        H      0.504060000000     0.092730000000     0.755560000000     0          
Zr1      Zr     0.000100000000     0.406660000000     0.993600000000     0          
O1       O      0.976300000000     0.374200000000     0.069760000000     0          
O2       O      0.996700000000     0.427400000000     0.140000000000     0          
C1       C      0.992900000000     0.383100000000     0.116290000000     0          
C2       C      0.977100000000     0.338690000000     0.154580000000     0          
N1       N      0.966400000000     0.245200000000     0.180430000000     0          
C3       C      0.980000000000     0.278290000000     0.140100000000     0          
C4       C      0.974000000000     0.269700000000     0.226600000000     0          
S1       S      0.980500000000     0.333200000000     0.219400000000     0          
O3       O      0.019900000000     0.378100000000     0.915400000000     0          
O4       O      0.985000000000     0.434500000000     0.853800000000     0          
C5       C      0.996500000000     0.388900000000     0.872370000000     0          
C6       C      0.013600000000     0.351320000000     0.827790000000     0          
N2       N      0.997000000000     0.321920000000     0.736100000000     0          
C7       C      0.001000000000     0.277270000000     0.763700000000     0          
C8       C      0.001000000000     0.364500000000     0.768500000000     0          
S2       S      0.007900000000     0.286700000000     0.826600000000     0          
O5       O      0.953300000000     0.438600000000     0.054700000000     0          
H        H      0.995940000000     0.407270000000     0.755560000000     0          
Zr1      Zr     0.000100000000     0.093340000000     0.506400000000     0          
O1       O      0.976300000000     0.125800000000     0.430240000000     0          
O2       O      0.996700000000     0.072600000000     0.360000000000     0          
C1       C      0.992900000000     0.116900000000     0.383710000000     0          
C2       C      0.977100000000     0.161310000000     0.345420000000     0          
N1       N      0.966400000000     0.254800000000     0.319570000000     0          
C3       C      0.980000000000     0.221710000000     0.359900000000     0          
C4       C      0.974000000000     0.230300000000     0.273400000000     0          
S1       S      0.980500000000     0.166800000000     0.280600000000     0          
O3       O      0.019900000000     0.121900000000     0.584600000000     0          
O4       O      0.985000000000     0.065500000000     0.646200000000     0          
C5       C      0.996500000000     0.111100000000     0.627630000000     0          
C6       C      0.013600000000     0.148680000000     0.672210000000     0          
N2       N      0.997000000000     0.178080000000     0.763900000000     0          
C7       C      0.001000000000     0.222730000000     0.736300000000     0          
C8       C      0.001000000000     0.135500000000     0.731500000000     0          
S2       S      0.007900000000     0.213300000000     0.673400000000     0          
O5       O      0.953300000000     0.061400000000     0.445300000000     0          
H        H      0.995940000000     0.092730000000     0.744440000000     0          
Zr1      Zr     0.493600000000     0.500100000000     0.593340000000     0          
O1       O      0.569760000000     0.476300000000     0.625800000000     0          
O2       O      0.640000000000     0.496700000000     0.572600000000     0          
C1       C      0.616290000000     0.492900000000     0.616900000000     0          
C2       C      0.654580000000     0.477100000000     0.661310000000     0          
N1       N      0.680430000000     0.466400000000     0.754800000000     0          
C3       C      0.640100000000     0.480000000000     0.721710000000     0          
C4       C      0.726600000000     0.474000000000     0.730300000000     0          
S1       S      0.719400000000     0.480500000000     0.666800000000     0          
O3       O      0.415400000000     0.519900000000     0.621900000000     0          
O4       O      0.353800000000     0.485000000000     0.565500000000     0          
C5       C      0.372370000000     0.496500000000     0.611100000000     0          
C6       C      0.327790000000     0.513600000000     0.648680000000     0          
N2       N      0.236100000000     0.497000000000     0.678080000000     0          
C7       C      0.263700000000     0.501000000000     0.722730000000     0          
C8       C      0.268500000000     0.501000000000     0.635500000000     0          
S2       S      0.326600000000     0.507900000000     0.713300000000     0          
O5       O      0.554700000000     0.453300000000     0.561400000000     0          
H        H      0.255560000000     0.495940000000     0.592730000000     0          
O6       O      0.547830000000     0.547830000000     0.547830000000     0          
H1       H      0.566830000000     0.566830000000     0.566830000000     0          
Zr1      Zr     0.006400000000     0.999900000000     0.593340000000     0          
O1       O      0.930240000000     0.023700000000     0.625800000000     0          
O2       O      0.860000000000     0.003300000000     0.572600000000     0          
C1       C      0.883710000000     0.007100000000     0.616900000000     0          
C2       C      0.845420000000     0.022900000000     0.661310000000     0          
N1       N      0.819570000000     0.033600000000     0.754800000000     0          
C3       C      0.859900000000     0.020000000000     0.721710000000     0          
C4       C      0.773400000000     0.026000000000     0.730300000000     0          
S1       S      0.780600000000     0.019500000000     0.666800000000     0          
O3       O      0.084600000000     0.980100000000     0.621900000000     0          
O4       O      0.146200000000     0.015000000000     0.565500000000     0          
C5       C      0.127630000000     0.003500000000     0.611100000000     0          
C6       C      0.172210000000     0.986400000000     0.648680000000     0          
N2       N      0.263900000000     0.003000000000     0.678080000000     0          
C7       C      0.236300000000     0.999000000000     0.722730000000     0          
C8       C      0.231500000000     0.999000000000     0.635500000000     0          
S2       S      0.173400000000     0.992100000000     0.713300000000     0          
O5       O      0.945300000000     0.046700000000     0.561400000000     0          
H        H      0.244440000000     0.004060000000     0.592730000000     0          
O6       O      0.952170000000     0.952170000000     0.547830000000     0          
H1       H      0.933170000000     0.933170000000     0.566830000000     0          
Zr1      Zr     0.493600000000     0.999900000000     0.906660000000     0          
O1       O      0.569760000000     0.023700000000     0.874200000000     0          
O2       O      0.640000000000     0.003300000000     0.927400000000     0          
C1       C      0.616290000000     0.007100000000     0.883100000000     0          
C2       C      0.654580000000     0.022900000000     0.838690000000     0          
N1       N      0.680430000000     0.033600000000     0.745200000000     0          
C3       C      0.640100000000     0.020000000000     0.778290000000     0          
C4       C      0.726600000000     0.026000000000     0.769700000000     0          
S1       S      0.719400000000     0.019500000000     0.833200000000     0          
O3       O      0.415400000000     0.980100000000     0.878100000000     0          
O4       O      0.353800000000     0.015000000000     0.934500000000     0          
C5       C      0.372370000000     0.003500000000     0.888900000000     0          
C6       C      0.327790000000     0.986400000000     0.851320000000     0          
N2       N      0.236100000000     0.003000000000     0.821920000000     0          
C7       C      0.263700000000     0.999000000000     0.777270000000     0          
C8       C      0.268500000000     0.999000000000     0.864500000000     0          
S2       S      0.326600000000     0.992100000000     0.786700000000     0          
O5       O      0.554700000000     0.046700000000     0.938600000000     0          
H        H      0.255560000000     0.004060000000     0.907270000000     0          
O6       O      0.547830000000     0.952170000000     0.952170000000     0          
H1       H      0.566830000000     0.933170000000     0.933170000000     0          
Zr1      Zr     0.006400000000     0.500100000000     0.906660000000     0          
O1       O      0.930240000000     0.476300000000     0.874200000000     0          
O2       O      0.860000000000     0.496700000000     0.927400000000     0          
C1       C      0.883710000000     0.492900000000     0.883100000000     0          
C2       C      0.845420000000     0.477100000000     0.838690000000     0          
N1       N      0.819570000000     0.466400000000     0.745200000000     0          
C3       C      0.859900000000     0.480000000000     0.778290000000     0          
C4       C      0.773400000000     0.474000000000     0.769700000000     0          
S1       S      0.780600000000     0.480500000000     0.833200000000     0          
O3       O      0.084600000000     0.519900000000     0.878100000000     0          
O4       O      0.146200000000     0.485000000000     0.934500000000     0          
C5       C      0.127630000000     0.496500000000     0.888900000000     0          
C6       C      0.172210000000     0.513600000000     0.851320000000     0          
N2       N      0.263900000000     0.497000000000     0.821920000000     0          
C7       C      0.236300000000     0.501000000000     0.777270000000     0          
C8       C      0.231500000000     0.501000000000     0.864500000000     0          
S2       S      0.173400000000     0.507900000000     0.786700000000     0          
O5       O      0.945300000000     0.453300000000     0.938600000000     0          
H        H      0.244440000000     0.495940000000     0.907270000000     0          
O6       O      0.952170000000     0.547830000000     0.952170000000     0          
H1       H      0.933170000000     0.566830000000     0.933170000000     0          
Zr1      Zr     0.593340000000     0.493600000000     0.500100000000     0          
O1       O      0.625800000000     0.569760000000     0.476300000000     0          
O2       O      0.572600000000     0.640000000000     0.496700000000     0          
C1       C      0.616900000000     0.616290000000     0.492900000000     0          
C2       C      0.661310000000     0.654580000000     0.477100000000     0          
N1       N      0.754800000000     0.680430000000     0.466400000000     0          
C3       C      0.721710000000     0.640100000000     0.480000000000     0          
C4       C      0.730300000000     0.726600000000     0.474000000000     0          
S1       S      0.666800000000     0.719400000000     0.480500000000     0          
O3       O      0.621900000000     0.415400000000     0.519900000000     0          
O4       O      0.565500000000     0.353800000000     0.485000000000     0          
C5       C      0.611100000000     0.372370000000     0.496500000000     0          
C6       C      0.648680000000     0.327790000000     0.513600000000     0          
N2       N      0.678080000000     0.236100000000     0.497000000000     0          
C7       C      0.722730000000     0.263700000000     0.501000000000     0          
C8       C      0.635500000000     0.268500000000     0.501000000000     0          
S2       S      0.713300000000     0.326600000000     0.507900000000     0          
O5       O      0.561400000000     0.554700000000     0.453300000000     0          
H        H      0.592730000000     0.255560000000     0.495940000000     0          
Zr1      Zr     0.906660000000     0.006400000000     0.500100000000     0          
O1       O      0.874200000000     0.930240000000     0.476300000000     0          
O2       O      0.927400000000     0.860000000000     0.496700000000     0          
C1       C      0.883100000000     0.883710000000     0.492900000000     0          
C2       C      0.838690000000     0.845420000000     0.477100000000     0          
N1       N      0.745200000000     0.819570000000     0.466400000000     0          
C3       C      0.778290000000     0.859900000000     0.480000000000     0          
C4       C      0.769700000000     0.773400000000     0.474000000000     0          
S1       S      0.833200000000     0.780600000000     0.480500000000     0          
O3       O      0.878100000000     0.084600000000     0.519900000000     0          
O4       O      0.934500000000     0.146200000000     0.485000000000     0          
C5       C      0.888900000000     0.127630000000     0.496500000000     0          
C6       C      0.851320000000     0.172210000000     0.513600000000     0          
N2       N      0.821920000000     0.263900000000     0.497000000000     0          
C7       C      0.777270000000     0.236300000000     0.501000000000     0          
C8       C      0.864500000000     0.231500000000     0.501000000000     0          
S2       S      0.786700000000     0.173400000000     0.507900000000     0          
O5       O      0.938600000000     0.945300000000     0.453300000000     0          
H        H      0.907270000000     0.244440000000     0.495940000000     0          
Zr1      Zr     0.593340000000     0.006400000000     0.999900000000     0          
O1       O      0.625800000000     0.930240000000     0.023700000000     0          
O2       O      0.572600000000     0.860000000000     0.003300000000     0          
C1       C      0.616900000000     0.883710000000     0.007100000000     0          
C2       C      0.661310000000     0.845420000000     0.022900000000     0          
N1       N      0.754800000000     0.819570000000     0.033600000000     0          
C3       C      0.721710000000     0.859900000000     0.020000000000     0          
C4       C      0.730300000000     0.773400000000     0.026000000000     0          
S1       S      0.666800000000     0.780600000000     0.019500000000     0          
O3       O      0.621900000000     0.084600000000     0.980100000000     0          
O4       O      0.565500000000     0.146200000000     0.015000000000     0          
C5       C      0.611100000000     0.127630000000     0.003500000000     0          
C6       C      0.648680000000     0.172210000000     0.986400000000     0          
N2       N      0.678080000000     0.263900000000     0.003000000000     0          
C7       C      0.722730000000     0.236300000000     0.999000000000     0          
C8       C      0.635500000000     0.231500000000     0.999000000000     0          
S2       S      0.713300000000     0.173400000000     0.992100000000     0          
O5       O      0.561400000000     0.945300000000     0.046700000000     0          
H        H      0.592730000000     0.244440000000     0.004060000000     0          
Zr1      Zr     0.906660000000     0.493600000000     0.999900000000     0          
O1       O      0.874200000000     0.569760000000     0.023700000000     0          
O2       O      0.927400000000     0.640000000000     0.003300000000     0          
C1       C      0.883100000000     0.616290000000     0.007100000000     0          
C2       C      0.838690000000     0.654580000000     0.022900000000     0          
N1       N      0.745200000000     0.680430000000     0.033600000000     0          
C3       C      0.778290000000     0.640100000000     0.020000000000     0          
C4       C      0.769700000000     0.726600000000     0.026000000000     0          
S1       S      0.833200000000     0.719400000000     0.019500000000     0          
O3       O      0.878100000000     0.415400000000     0.980100000000     0          
O4       O      0.934500000000     0.353800000000     0.015000000000     0          
C5       C      0.888900000000     0.372370000000     0.003500000000     0          
C6       C      0.851320000000     0.327790000000     0.986400000000     0          
N2       N      0.821920000000     0.236100000000     0.003000000000     0          
C7       C      0.777270000000     0.263700000000     0.999000000000     0          
C8       C      0.864500000000     0.268500000000     0.999000000000     0          
S2       S      0.786700000000     0.326600000000     0.992100000000     0          
O5       O      0.938600000000     0.554700000000     0.046700000000     0          
H        H      0.907270000000     0.255560000000     0.004060000000     0          
Zr1      Zr     0.500100000000     0.593340000000     0.493600000000     0          
O1       O      0.476300000000     0.625800000000     0.569760000000     0          
O2       O      0.496700000000     0.572600000000     0.640000000000     0          
C1       C      0.492900000000     0.616900000000     0.616290000000     0          
C2       C      0.477100000000     0.661310000000     0.654580000000     0          
N1       N      0.466400000000     0.754800000000     0.680430000000     0          
C3       C      0.480000000000     0.721710000000     0.640100000000     0          
C4       C      0.474000000000     0.730300000000     0.726600000000     0          
S1       S      0.480500000000     0.666800000000     0.719400000000     0          
O3       O      0.519900000000     0.621900000000     0.415400000000     0          
O4       O      0.485000000000     0.565500000000     0.353800000000     0          
C5       C      0.496500000000     0.611100000000     0.372370000000     0          
C6       C      0.513600000000     0.648680000000     0.327790000000     0          
N2       N      0.497000000000     0.678080000000     0.236100000000     0          
C7       C      0.501000000000     0.722730000000     0.263700000000     0          
C8       C      0.501000000000     0.635500000000     0.268500000000     0          
S2       S      0.507900000000     0.713300000000     0.326600000000     0          
O5       O      0.453300000000     0.561400000000     0.554700000000     0          
H        H      0.495940000000     0.592730000000     0.255560000000     0          
Zr1      Zr     0.500100000000     0.906660000000     0.006400000000     0          
O1       O      0.476300000000     0.874200000000     0.930240000000     0          
O2       O      0.496700000000     0.927400000000     0.860000000000     0          
C1       C      0.492900000000     0.883100000000     0.883710000000     0          
C2       C      0.477100000000     0.838690000000     0.845420000000     0          
N1       N      0.466400000000     0.745200000000     0.819570000000     0          
C3       C      0.480000000000     0.778290000000     0.859900000000     0          
C4       C      0.474000000000     0.769700000000     0.773400000000     0          
S1       S      0.480500000000     0.833200000000     0.780600000000     0          
O3       O      0.519900000000     0.878100000000     0.084600000000     0          
O4       O      0.485000000000     0.934500000000     0.146200000000     0          
C5       C      0.496500000000     0.888900000000     0.127630000000     0          
C6       C      0.513600000000     0.851320000000     0.172210000000     0          
N2       N      0.497000000000     0.821920000000     0.263900000000     0          
C7       C      0.501000000000     0.777270000000     0.236300000000     0          
C8       C      0.501000000000     0.864500000000     0.231500000000     0          
S2       S      0.507900000000     0.786700000000     0.173400000000     0          
O5       O      0.453300000000     0.938600000000     0.945300000000     0          
H        H      0.495940000000     0.907270000000     0.244440000000     0          
Zr1      Zr     0.999900000000     0.593340000000     0.006400000000     0          
O1       O      0.023700000000     0.625800000000     0.930240000000     0          
O2       O      0.003300000000     0.572600000000     0.860000000000     0          
C1       C      0.007100000000     0.616900000000     0.883710000000     0          
C2       C      0.022900000000     0.661310000000     0.845420000000     0          
N1       N      0.033600000000     0.754800000000     0.819570000000     0          
C3       C      0.020000000000     0.721710000000     0.859900000000     0          
C4       C      0.026000000000     0.730300000000     0.773400000000     0          
S1       S      0.019500000000     0.666800000000     0.780600000000     0          
O3       O      0.980100000000     0.621900000000     0.084600000000     0          
O4       O      0.015000000000     0.565500000000     0.146200000000     0          
C5       C      0.003500000000     0.611100000000     0.127630000000     0          
C6       C      0.986400000000     0.648680000000     0.172210000000     0          
N2       N      0.003000000000     0.678080000000     0.263900000000     0          
C7       C      0.999000000000     0.722730000000     0.236300000000     0          
C8       C      0.999000000000     0.635500000000     0.231500000000     0          
S2       S      0.992100000000     0.713300000000     0.173400000000     0          
O5       O      0.046700000000     0.561400000000     0.945300000000     0          
H        H      0.004060000000     0.592730000000     0.244440000000     0          
Zr1      Zr     0.999900000000     0.906660000000     0.493600000000     0          
O1       O      0.023700000000     0.874200000000     0.569760000000     0          
O2       O      0.003300000000     0.927400000000     0.640000000000     0          
C1       C      0.007100000000     0.883100000000     0.616290000000     0          
C2       C      0.022900000000     0.838690000000     0.654580000000     0          
N1       N      0.033600000000     0.745200000000     0.680430000000     0          
C3       C      0.020000000000     0.778290000000     0.640100000000     0          
C4       C      0.026000000000     0.769700000000     0.726600000000     0          
S1       S      0.019500000000     0.833200000000     0.719400000000     0          
O3       O      0.980100000000     0.878100000000     0.415400000000     0          
O4       O      0.015000000000     0.934500000000     0.353800000000     0          
C5       C      0.003500000000     0.888900000000     0.372370000000     0          
C6       C      0.986400000000     0.851320000000     0.327790000000     0          
N2       N      0.003000000000     0.821920000000     0.236100000000     0          
C7       C      0.999000000000     0.777270000000     0.263700000000     0          
C8       C      0.999000000000     0.864500000000     0.268500000000     0          
S2       S      0.992100000000     0.786700000000     0.326600000000     0          
O5       O      0.046700000000     0.938600000000     0.554700000000     0          
H        H      0.004060000000     0.907270000000     0.255560000000     0          


