data_WUTBAQ

_audit_creation_method RASPA-1.0
_audit_creation_date 2020-1-15
_audit_author_name 'Rocio Bueno-Perez'

_cell_length_a    23.3278
_cell_length_b    23.3278
_cell_length_c    14.9852
_cell_angle_alpha 90
_cell_angle_beta  90
_cell_angle_gamma 90
_cell_volume      8154.69

_symmetry_cell_setting          tetragonal
_symmetry_space_group_name_Hall 'P 1'
_symmetry_space_group_name_H-M  'P 1'
_symmetry_Int_Tables_number     1

_symmetry_equiv_pos_as_xyz 'x,y,z'

loop_
_atom_site_label
_atom_site_type_symbol
_atom_site_fract_x
_atom_site_fract_y
_atom_site_fract_z
_atom_site_charge
Zr1      Zr     0.233160000000     0.008520000000     0.112150000000     0          
O1       O      0.962224000000     0.918871000000     0.387883000000     0          
O2       O      0.948075000000     0.911231000000     0.239723000000     0          
O3       O      0.168757000000     0.998563000000     0.409335000000     0          
O4       O      0.202039000000     0.006232000000     0.249789000000     0          
O5       O      0.141679000000     0.979102000000     0.107544000000     0          
O6       O      0.543589000000     0.108847000000     0.242735000000     0          
O7       O      0.526318000000     0.111148000000     0.094944000000     0          
O8       O      0.352125000000     0.033444000000     0.372815000000     0          
O9       O      0.290738000000     0.010415000000     0.225068000000     0          
O10      O      0.322403000000     0.025150000000     0.070421000000     0          
C1       C      0.042421000000     0.947231000000     0.289583000000     0          
C2       C      0.076353000000     0.962172000000     0.359414000000     0          
C3       C      0.130207000000     0.982032000000     0.344468000000     0          
C4       C      0.150128000000     0.986951000000     0.259691000000     0          
C5       C      0.116196000000     0.972010000000     0.189860000000     0          
C6       C      0.062343000000     0.952150000000     0.204806000000     0          
C7       C      0.980935000000     0.924557000000     0.306648000000     0          
H1       H      0.061972000000     0.958621000000     0.420612000000     0          
H2       H      0.037848000000     0.941365000000     0.154398000000     0          
C8       C      0.448726000000     0.074797000000     0.191920000000     0          
C9       C      0.429810000000     0.066091000000     0.276517000000     0          
C10      C      0.376602000000     0.044370000000     0.290777000000     0          
C11      C      0.342311000000     0.031355000000     0.220440000000     0          
C12      C      0.361227000000     0.040061000000     0.135843000000     0          
C13      C      0.414435000000     0.061782000000     0.121583000000     0          
C14      C      0.509475000000     0.099596000000     0.175639000000     0          
H3       H      0.454564000000     0.075486000000     0.327291000000     0          
H4       H      0.428090000000     0.068066000000     0.060514000000     0          
C15      C      0.600420000000     0.132048000000     0.227515000000     0          
Zr1E     Zr     0.258520000000     0.016840000000     0.362150000000     0          
O3C      O      0.251437000000     0.918757000000     0.159335000000     0          
O4C      O      0.243768000000     0.952039000000     0.999789000000     0          
O8C      O      0.216556000000     0.102125000000     0.122815000000     0          
O9C      O      0.239585000000     0.040738000000     0.975068000000     0          
Zr1      Zr     0.741480000000     0.483160000000     0.362150000000     0          
O1       O      0.831129000000     0.212224000000     0.637883000000     0          
O2       O      0.838769000000     0.198075000000     0.489723000000     0          
O3       O      0.751437000000     0.418757000000     0.659335000000     0          
O4       O      0.743768000000     0.452039000000     0.499789000000     0          
O5       O      0.770898000000     0.391679000000     0.357544000000     0          
O6       O      0.641153000000     0.793589000000     0.492735000000     0          
O7       O      0.638852000000     0.776318000000     0.344944000000     0          
O8       O      0.716556000000     0.602125000000     0.622815000000     0          
O9       O      0.739585000000     0.540738000000     0.475068000000     0          
O10      O      0.724850000000     0.572403000000     0.320421000000     0          
C1       C      0.802769000000     0.292421000000     0.539583000000     0          
C2       C      0.787828000000     0.326353000000     0.609414000000     0          
C3       C      0.767968000000     0.380207000000     0.594468000000     0          
C4       C      0.763049000000     0.400128000000     0.509691000000     0          
C5       C      0.777990000000     0.366196000000     0.439860000000     0          
C6       C      0.797850000000     0.312343000000     0.454806000000     0          
C7       C      0.825443000000     0.230935000000     0.556648000000     0          
H1       H      0.791379000000     0.311972000000     0.670612000000     0          
H2       H      0.808635000000     0.287848000000     0.404398000000     0          
C8       C      0.675203000000     0.698726000000     0.441920000000     0          
C9       C      0.683909000000     0.679810000000     0.526517000000     0          
C10      C      0.705630000000     0.626602000000     0.540777000000     0          
C11      C      0.718645000000     0.592311000000     0.470440000000     0          
C12      C      0.709939000000     0.611227000000     0.385843000000     0          
C13      C      0.688218000000     0.664435000000     0.371583000000     0          
C14      C      0.650404000000     0.759475000000     0.425639000000     0          
H3       H      0.674514000000     0.704564000000     0.577291000000     0          
H4       H      0.681934000000     0.678090000000     0.310514000000     0          
C15      C      0.617952000000     0.850420000000     0.477515000000     0          
Zr1E     Zr     0.733160000000     0.508520000000     0.612150000000     0          
O3C      O      0.831243000000     0.501437000000     0.409335000000     0          
O4C      O      0.797961000000     0.493768000000     0.249789000000     0          
O8C      O      0.647875000000     0.466556000000     0.372815000000     0          
O9C      O      0.709262000000     0.489585000000     0.225068000000     0          
Zr1      Zr     0.266840000000     0.991480000000     0.612150000000     0          
O1       O      0.537776000000     0.081129000000     0.887883000000     0          
O2       O      0.551925000000     0.088769000000     0.739723000000     0          
O3       O      0.331243000000     0.001437000000     0.909335000000     0          
O4       O      0.297961000000     0.993768000000     0.749789000000     0          
O5       O      0.358321000000     0.020898000000     0.607544000000     0          
O6       O      0.956411000000     0.891153000000     0.742735000000     0          
O7       O      0.973682000000     0.888852000000     0.594944000000     0          
O8       O      0.147875000000     0.966556000000     0.872815000000     0          
O9       O      0.209262000000     0.989585000000     0.725068000000     0          
O10      O      0.177597000000     0.974850000000     0.570421000000     0          
C1       C      0.457579000000     0.052769000000     0.789583000000     0          
C2       C      0.423647000000     0.037828000000     0.859414000000     0          
C3       C      0.369793000000     0.017968000000     0.844468000000     0          
C4       C      0.349872000000     0.013049000000     0.759691000000     0          
C5       C      0.383804000000     0.027990000000     0.689860000000     0          
C6       C      0.437657000000     0.047850000000     0.704806000000     0          
C7       C      0.519065000000     0.075443000000     0.806648000000     0          
H1       H      0.438028000000     0.041379000000     0.920612000000     0          
H2       H      0.462152000000     0.058635000000     0.654398000000     0          
C8       C      0.051274000000     0.925203000000     0.691920000000     0          
C9       C      0.070190000000     0.933909000000     0.776517000000     0          
C10      C      0.123398000000     0.955630000000     0.790777000000     0          
C11      C      0.157689000000     0.968645000000     0.720440000000     0          
C12      C      0.138773000000     0.959939000000     0.635843000000     0          
C13      C      0.085565000000     0.938218000000     0.621583000000     0          
C14      C      0.990525000000     0.900404000000     0.675639000000     0          
H3       H      0.045436000000     0.924514000000     0.827291000000     0          
H4       H      0.071910000000     0.931934000000     0.560514000000     0          
C15      C      0.899580000000     0.867952000000     0.727515000000     0          
Zr1E     Zr     0.241480000000     0.983160000000     0.862150000000     0          
O3C      O      0.248563000000     0.081243000000     0.659335000000     0          
O4C      O      0.256232000000     0.047961000000     0.499789000000     0          
O8C      O      0.283444000000     0.897875000000     0.622815000000     0          
O9C      O      0.260415000000     0.959262000000     0.475068000000     0          
Zr1      Zr     0.758520000000     0.516840000000     0.862150000000     0          
O1       O      0.668871000000     0.787776000000     0.137883000000     0          
O2       O      0.661231000000     0.801925000000     0.989723000000     0          
O3       O      0.748563000000     0.581243000000     0.159335000000     0          
O4       O      0.756232000000     0.547961000000     0.999789000000     0          
O5       O      0.729102000000     0.608321000000     0.857544000000     0          
O6       O      0.858847000000     0.206411000000     0.992735000000     0          
O7       O      0.861148000000     0.223682000000     0.844944000000     0          
O8       O      0.783444000000     0.397875000000     0.122815000000     0          
O9       O      0.760415000000     0.459262000000     0.975068000000     0          
O10      O      0.775150000000     0.427597000000     0.820421000000     0          
C1       C      0.697231000000     0.707579000000     0.039583000000     0          
C2       C      0.712172000000     0.673647000000     0.109414000000     0          
C3       C      0.732032000000     0.619793000000     0.094468000000     0          
C4       C      0.736951000000     0.599872000000     0.009691000000     0          
C5       C      0.722010000000     0.633804000000     0.939860000000     0          
C6       C      0.702150000000     0.687657000000     0.954806000000     0          
C7       C      0.674557000000     0.769065000000     0.056648000000     0          
H1       H      0.708621000000     0.688028000000     0.170612000000     0          
H2       H      0.691365000000     0.712152000000     0.904398000000     0          
C8       C      0.824797000000     0.301274000000     0.941920000000     0          
C9       C      0.816091000000     0.320190000000     0.026517000000     0          
C10      C      0.794370000000     0.373398000000     0.040777000000     0          
C11      C      0.781355000000     0.407689000000     0.970440000000     0          
C12      C      0.790061000000     0.388773000000     0.885843000000     0          
C13      C      0.811782000000     0.335565000000     0.871583000000     0          
C14      C      0.849596000000     0.240525000000     0.925639000000     0          
H3       H      0.825486000000     0.295436000000     0.077291000000     0          
H4       H      0.818066000000     0.321910000000     0.810514000000     0          
C15      C      0.882048000000     0.149580000000     0.977515000000     0          
Zr1E     Zr     0.766840000000     0.491480000000     0.112150000000     0          
O3C      O      0.668757000000     0.498563000000     0.909335000000     0          
O4C      O      0.702039000000     0.506232000000     0.749789000000     0          
O8C      O      0.852125000000     0.533444000000     0.872815000000     0          
O9C      O      0.790738000000     0.510415000000     0.725068000000     0          
Zr1      Zr     0.766840000000     0.991480000000     0.887850000000     0          
O1       O      0.037776000000     0.081129000000     0.612117000000     0          
O2       O      0.051925000000     0.088769000000     0.760277000000     0          
O3       O      0.831243000000     0.001437000000     0.590665000000     0          
O4       O      0.797961000000     0.993768000000     0.750211000000     0          
O5       O      0.858321000000     0.020898000000     0.892456000000     0          
O6       O      0.456411000000     0.891153000000     0.757265000000     0          
O7       O      0.473682000000     0.888852000000     0.905056000000     0          
O8       O      0.647875000000     0.966556000000     0.627185000000     0          
O9       O      0.709262000000     0.989585000000     0.774932000000     0          
O10      O      0.677597000000     0.974850000000     0.929579000000     0          
C1       C      0.957579000000     0.052769000000     0.710417000000     0          
C2       C      0.923647000000     0.037828000000     0.640586000000     0          
C3       C      0.869793000000     0.017968000000     0.655532000000     0          
C4       C      0.849872000000     0.013049000000     0.740309000000     0          
C5       C      0.883804000000     0.027990000000     0.810140000000     0          
C6       C      0.937657000000     0.047850000000     0.795194000000     0          
C7       C      0.019065000000     0.075443000000     0.693352000000     0          
H1       H      0.938028000000     0.041379000000     0.579388000000     0          
H2       H      0.962152000000     0.058635000000     0.845602000000     0          
C8       C      0.551274000000     0.925203000000     0.808080000000     0          
C9       C      0.570190000000     0.933909000000     0.723483000000     0          
C10      C      0.623398000000     0.955630000000     0.709223000000     0          
C11      C      0.657689000000     0.968645000000     0.779560000000     0          
C12      C      0.638773000000     0.959939000000     0.864157000000     0          
C13      C      0.585565000000     0.938218000000     0.878417000000     0          
C14      C      0.490525000000     0.900404000000     0.824361000000     0          
H3       H      0.545436000000     0.924514000000     0.672709000000     0          
H4       H      0.571910000000     0.931934000000     0.939486000000     0          
C15      C      0.399580000000     0.867952000000     0.772485000000     0          
Zr1E     Zr     0.741480000000     0.983160000000     0.637850000000     0          
O3C      O      0.748563000000     0.081243000000     0.840665000000     0          
O4C      O      0.756232000000     0.047961000000     0.000211000000     0          
O8C      O      0.783444000000     0.897875000000     0.877185000000     0          
O9C      O      0.760415000000     0.959262000000     0.024932000000     0          
Zr1      Zr     0.258520000000     0.516840000000     0.637850000000     0          
O1       O      0.168871000000     0.787776000000     0.362117000000     0          
O2       O      0.161231000000     0.801925000000     0.510277000000     0          
O3       O      0.248563000000     0.581243000000     0.340665000000     0          
O4       O      0.256232000000     0.547961000000     0.500211000000     0          
O5       O      0.229102000000     0.608321000000     0.642456000000     0          
O6       O      0.358847000000     0.206411000000     0.507265000000     0          
O7       O      0.361148000000     0.223682000000     0.655056000000     0          
O8       O      0.283444000000     0.397875000000     0.377185000000     0          
O9       O      0.260415000000     0.459262000000     0.524932000000     0          
O10      O      0.275150000000     0.427597000000     0.679579000000     0          
C1       C      0.197231000000     0.707579000000     0.460417000000     0          
C2       C      0.212172000000     0.673647000000     0.390586000000     0          
C3       C      0.232032000000     0.619793000000     0.405532000000     0          
C4       C      0.236951000000     0.599872000000     0.490309000000     0          
C5       C      0.222010000000     0.633804000000     0.560140000000     0          
C6       C      0.202150000000     0.687657000000     0.545194000000     0          
C7       C      0.174557000000     0.769065000000     0.443352000000     0          
H1       H      0.208621000000     0.688028000000     0.329388000000     0          
H2       H      0.191365000000     0.712152000000     0.595602000000     0          
C8       C      0.324797000000     0.301274000000     0.558080000000     0          
C9       C      0.316091000000     0.320190000000     0.473483000000     0          
C10      C      0.294370000000     0.373398000000     0.459223000000     0          
C11      C      0.281355000000     0.407689000000     0.529560000000     0          
C12      C      0.290061000000     0.388773000000     0.614157000000     0          
C13      C      0.311782000000     0.335565000000     0.628417000000     0          
C14      C      0.349596000000     0.240525000000     0.574361000000     0          
H3       H      0.325486000000     0.295436000000     0.422709000000     0          
H4       H      0.318066000000     0.321910000000     0.689486000000     0          
C15      C      0.382048000000     0.149580000000     0.522485000000     0          
Zr1E     Zr     0.266840000000     0.491480000000     0.387850000000     0          
O3C      O      0.168757000000     0.498563000000     0.590665000000     0          
O4C      O      0.202039000000     0.506232000000     0.750211000000     0          
O8C      O      0.352125000000     0.533444000000     0.627185000000     0          
O9C      O      0.290738000000     0.510415000000     0.774932000000     0          
Zr1      Zr     0.733160000000     0.008520000000     0.387850000000     0          
O1       O      0.462224000000     0.918871000000     0.112117000000     0          
O2       O      0.448075000000     0.911231000000     0.260277000000     0          
O3       O      0.668757000000     0.998563000000     0.090665000000     0          
O4       O      0.702039000000     0.006232000000     0.250211000000     0          
O5       O      0.641679000000     0.979102000000     0.392456000000     0          
O6       O      0.043589000000     0.108847000000     0.257265000000     0          
O7       O      0.026318000000     0.111148000000     0.405056000000     0          
O8       O      0.852125000000     0.033444000000     0.127185000000     0          
O9       O      0.790738000000     0.010415000000     0.274932000000     0          
O10      O      0.822403000000     0.025150000000     0.429579000000     0          
C1       C      0.542421000000     0.947231000000     0.210417000000     0          
C2       C      0.576353000000     0.962172000000     0.140586000000     0          
C3       C      0.630207000000     0.982032000000     0.155532000000     0          
C4       C      0.650128000000     0.986951000000     0.240309000000     0          
C5       C      0.616196000000     0.972010000000     0.310140000000     0          
C6       C      0.562343000000     0.952150000000     0.295194000000     0          
C7       C      0.480935000000     0.924557000000     0.193352000000     0          
H1       H      0.561972000000     0.958621000000     0.079388000000     0          
H2       H      0.537848000000     0.941365000000     0.345602000000     0          
C8       C      0.948726000000     0.074797000000     0.308080000000     0          
C9       C      0.929810000000     0.066091000000     0.223483000000     0          
C10      C      0.876602000000     0.044370000000     0.209223000000     0          
C11      C      0.842311000000     0.031355000000     0.279560000000     0          
C12      C      0.861227000000     0.040061000000     0.364157000000     0          
C13      C      0.914435000000     0.061782000000     0.378417000000     0          
C14      C      0.009475000000     0.099596000000     0.324361000000     0          
H3       H      0.954564000000     0.075486000000     0.172709000000     0          
H4       H      0.928090000000     0.068066000000     0.439486000000     0          
C15      C      0.100420000000     0.132048000000     0.272485000000     0          
Zr1E     Zr     0.758520000000     0.016840000000     0.137850000000     0          
O3C      O      0.751437000000     0.918757000000     0.340665000000     0          
O4C      O      0.743768000000     0.952039000000     0.500211000000     0          
O8C      O      0.716556000000     0.102125000000     0.377185000000     0          
O9C      O      0.739585000000     0.040738000000     0.524932000000     0          
Zr1      Zr     0.241480000000     0.483160000000     0.137850000000     0          
O1       O      0.331129000000     0.212224000000     0.862117000000     0          
O2       O      0.338769000000     0.198075000000     0.010277000000     0          
O3       O      0.251437000000     0.418757000000     0.840665000000     0          
O4       O      0.243768000000     0.452039000000     0.000211000000     0          
O5       O      0.270898000000     0.391679000000     0.142456000000     0          
O6       O      0.141153000000     0.793589000000     0.007265000000     0          
O7       O      0.138852000000     0.776318000000     0.155056000000     0          
O8       O      0.216556000000     0.602125000000     0.877185000000     0          
O9       O      0.239585000000     0.540738000000     0.024932000000     0          
O10      O      0.224850000000     0.572403000000     0.179579000000     0          
C1       C      0.302769000000     0.292421000000     0.960417000000     0          
C2       C      0.287828000000     0.326353000000     0.890586000000     0          
C3       C      0.267968000000     0.380207000000     0.905532000000     0          
C4       C      0.263049000000     0.400128000000     0.990309000000     0          
C5       C      0.277990000000     0.366196000000     0.060140000000     0          
C6       C      0.297850000000     0.312343000000     0.045194000000     0          
C7       C      0.325443000000     0.230935000000     0.943352000000     0          
H1       H      0.291379000000     0.311972000000     0.829388000000     0          
H2       H      0.308635000000     0.287848000000     0.095602000000     0          
C8       C      0.175203000000     0.698726000000     0.058080000000     0          
C9       C      0.183909000000     0.679810000000     0.973483000000     0          
C10      C      0.205630000000     0.626602000000     0.959223000000     0          
C11      C      0.218645000000     0.592311000000     0.029560000000     0          
C12      C      0.209939000000     0.611227000000     0.114157000000     0          
C13      C      0.188218000000     0.664435000000     0.128417000000     0          
C14      C      0.150404000000     0.759475000000     0.074361000000     0          
H3       H      0.174514000000     0.704564000000     0.922709000000     0          
H4       H      0.181934000000     0.678090000000     0.189486000000     0          
C15      C      0.117952000000     0.850420000000     0.022485000000     0          
Zr1E     Zr     0.233160000000     0.508520000000     0.887850000000     0          
O3C      O      0.331243000000     0.501437000000     0.090665000000     0          
O4C      O      0.297961000000     0.493768000000     0.250211000000     0          
O8C      O      0.147875000000     0.466556000000     0.127185000000     0          
O9C      O      0.209262000000     0.489585000000     0.274932000000     0          
O1       O      0.462224000000     0.418871000000     0.887883000000     0          
O2       O      0.448075000000     0.411231000000     0.739723000000     0          
O5       O      0.641679000000     0.479102000000     0.607544000000     0          
O6       O      0.043589000000     0.608847000000     0.742735000000     0          
O7       O      0.026318000000     0.611148000000     0.594944000000     0          
O10      O      0.822403000000     0.525150000000     0.570421000000     0          
C1       C      0.542421000000     0.447231000000     0.789583000000     0          
C2       C      0.576353000000     0.462172000000     0.859414000000     0          
C3       C      0.630207000000     0.482032000000     0.844468000000     0          
C4       C      0.650128000000     0.486951000000     0.759691000000     0          
C5       C      0.616196000000     0.472010000000     0.689860000000     0          
C6       C      0.562343000000     0.452150000000     0.704806000000     0          
C7       C      0.480935000000     0.424557000000     0.806648000000     0          
H1       H      0.561972000000     0.458621000000     0.920612000000     0          
H2       H      0.537848000000     0.441365000000     0.654398000000     0          
C8       C      0.948726000000     0.574797000000     0.691920000000     0          
C9       C      0.929810000000     0.566091000000     0.776517000000     0          
C10      C      0.876602000000     0.544370000000     0.790777000000     0          
C11      C      0.842311000000     0.531355000000     0.720440000000     0          
C12      C      0.861227000000     0.540061000000     0.635843000000     0          
C13      C      0.914435000000     0.561782000000     0.621583000000     0          
C14      C      0.009475000000     0.599596000000     0.675639000000     0          
H3       H      0.954564000000     0.575486000000     0.827291000000     0          
H4       H      0.928090000000     0.568066000000     0.560514000000     0          
C15      C      0.100420000000     0.632048000000     0.727515000000     0          
O1       O      0.331129000000     0.712224000000     0.137883000000     0          
O2       O      0.338769000000     0.698075000000     0.989723000000     0          
O5       O      0.270898000000     0.891679000000     0.857544000000     0          
O6       O      0.141153000000     0.293589000000     0.992735000000     0          
O7       O      0.138852000000     0.276318000000     0.844944000000     0          
O10      O      0.224850000000     0.072403000000     0.820421000000     0          
C1       C      0.302769000000     0.792421000000     0.039583000000     0          
C2       C      0.287828000000     0.826353000000     0.109414000000     0          
C3       C      0.267968000000     0.880207000000     0.094468000000     0          
C4       C      0.263049000000     0.900128000000     0.009691000000     0          
C5       C      0.277990000000     0.866196000000     0.939860000000     0          
C6       C      0.297850000000     0.812343000000     0.954806000000     0          
C7       C      0.325443000000     0.730935000000     0.056648000000     0          
H1       H      0.291379000000     0.811972000000     0.170612000000     0          
H2       H      0.308635000000     0.787848000000     0.904398000000     0          
C8       C      0.175203000000     0.198726000000     0.941920000000     0          
C9       C      0.183909000000     0.179810000000     0.026517000000     0          
C10      C      0.205630000000     0.126602000000     0.040777000000     0          
C11      C      0.218645000000     0.092311000000     0.970440000000     0          
C12      C      0.209939000000     0.111227000000     0.885843000000     0          
C13      C      0.188218000000     0.164435000000     0.871583000000     0          
C14      C      0.150404000000     0.259475000000     0.925639000000     0          
H3       H      0.174514000000     0.204564000000     0.077291000000     0          
H4       H      0.181934000000     0.178090000000     0.810514000000     0          
C15      C      0.117952000000     0.350420000000     0.977515000000     0          
O1       O      0.037776000000     0.581129000000     0.387883000000     0          
O2       O      0.051925000000     0.588769000000     0.239723000000     0          
O5       O      0.858321000000     0.520898000000     0.107544000000     0          
O6       O      0.456411000000     0.391153000000     0.242735000000     0          
O7       O      0.473682000000     0.388852000000     0.094944000000     0          
O10      O      0.677597000000     0.474850000000     0.070421000000     0          
C1       C      0.957579000000     0.552769000000     0.289583000000     0          
C2       C      0.923647000000     0.537828000000     0.359414000000     0          
C3       C      0.869793000000     0.517968000000     0.344468000000     0          
C4       C      0.849872000000     0.513049000000     0.259691000000     0          
C5       C      0.883804000000     0.527990000000     0.189860000000     0          
C6       C      0.937657000000     0.547850000000     0.204806000000     0          
C7       C      0.019065000000     0.575443000000     0.306648000000     0          
H1       H      0.938028000000     0.541379000000     0.420612000000     0          
H2       H      0.962152000000     0.558635000000     0.154398000000     0          
C8       C      0.551274000000     0.425203000000     0.191920000000     0          
C9       C      0.570190000000     0.433909000000     0.276517000000     0          
C10      C      0.623398000000     0.455630000000     0.290777000000     0          
C11      C      0.657689000000     0.468645000000     0.220440000000     0          
C12      C      0.638773000000     0.459939000000     0.135843000000     0          
C13      C      0.585565000000     0.438218000000     0.121583000000     0          
C14      C      0.490525000000     0.400404000000     0.175639000000     0          
H3       H      0.545436000000     0.424514000000     0.327291000000     0          
H4       H      0.571910000000     0.431934000000     0.060514000000     0          
C15      C      0.399580000000     0.367952000000     0.227515000000     0          
O1       O      0.168871000000     0.287776000000     0.637883000000     0          
O2       O      0.161231000000     0.301925000000     0.489723000000     0          
O5       O      0.229102000000     0.108321000000     0.357544000000     0          
O6       O      0.358847000000     0.706411000000     0.492735000000     0          
O7       O      0.361148000000     0.723682000000     0.344944000000     0          
O10      O      0.275150000000     0.927597000000     0.320421000000     0          
C1       C      0.197231000000     0.207579000000     0.539583000000     0          
C2       C      0.212172000000     0.173647000000     0.609414000000     0          
C3       C      0.232032000000     0.119793000000     0.594468000000     0          
C4       C      0.236951000000     0.099872000000     0.509691000000     0          
C5       C      0.222010000000     0.133804000000     0.439860000000     0          
C6       C      0.202150000000     0.187657000000     0.454806000000     0          
C7       C      0.174557000000     0.269065000000     0.556648000000     0          
H1       H      0.208621000000     0.188028000000     0.670612000000     0          
H2       H      0.191365000000     0.212152000000     0.404398000000     0          
C8       C      0.324797000000     0.801274000000     0.441920000000     0          
C9       C      0.316091000000     0.820190000000     0.526517000000     0          
C10      C      0.294370000000     0.873398000000     0.540777000000     0          
C11      C      0.281355000000     0.907689000000     0.470440000000     0          
C12      C      0.290061000000     0.888773000000     0.385843000000     0          
C13      C      0.311782000000     0.835565000000     0.371583000000     0          
C14      C      0.349596000000     0.740525000000     0.425639000000     0          
H3       H      0.325486000000     0.795436000000     0.577291000000     0          
H4       H      0.318066000000     0.821910000000     0.310514000000     0          
C15      C      0.382048000000     0.649580000000     0.477515000000     0          
O1       O      0.537776000000     0.581129000000     0.112117000000     0          
O2       O      0.551925000000     0.588769000000     0.260277000000     0          
O5       O      0.358321000000     0.520898000000     0.392456000000     0          
O6       O      0.956411000000     0.391153000000     0.257265000000     0          
O7       O      0.973682000000     0.388852000000     0.405056000000     0          
O10      O      0.177597000000     0.474850000000     0.429579000000     0          
C1       C      0.457579000000     0.552769000000     0.210417000000     0          
C2       C      0.423647000000     0.537828000000     0.140586000000     0          
C3       C      0.369793000000     0.517968000000     0.155532000000     0          
C4       C      0.349872000000     0.513049000000     0.240309000000     0          
C5       C      0.383804000000     0.527990000000     0.310140000000     0          
C6       C      0.437657000000     0.547850000000     0.295194000000     0          
C7       C      0.519065000000     0.575443000000     0.193352000000     0          
H1       H      0.438028000000     0.541379000000     0.079388000000     0          
H2       H      0.462152000000     0.558635000000     0.345602000000     0          
C8       C      0.051274000000     0.425203000000     0.308080000000     0          
C9       C      0.070190000000     0.433909000000     0.223483000000     0          
C10      C      0.123398000000     0.455630000000     0.209223000000     0          
C11      C      0.157689000000     0.468645000000     0.279560000000     0          
C12      C      0.138773000000     0.459939000000     0.364157000000     0          
C13      C      0.085565000000     0.438218000000     0.378417000000     0          
C14      C      0.990525000000     0.400404000000     0.324361000000     0          
H3       H      0.045436000000     0.424514000000     0.172709000000     0          
H4       H      0.071910000000     0.431934000000     0.439486000000     0          
C15      C      0.899580000000     0.367952000000     0.272485000000     0          
O1       O      0.668871000000     0.287776000000     0.862117000000     0          
O2       O      0.661231000000     0.301925000000     0.010277000000     0          
O5       O      0.729102000000     0.108321000000     0.142456000000     0          
O6       O      0.858847000000     0.706411000000     0.007265000000     0          
O7       O      0.861148000000     0.723682000000     0.155056000000     0          
O10      O      0.775150000000     0.927597000000     0.179579000000     0          
C1       C      0.697231000000     0.207579000000     0.960417000000     0          
C2       C      0.712172000000     0.173647000000     0.890586000000     0          
C3       C      0.732032000000     0.119793000000     0.905532000000     0          
C4       C      0.736951000000     0.099872000000     0.990309000000     0          
C5       C      0.722010000000     0.133804000000     0.060140000000     0          
C6       C      0.702150000000     0.187657000000     0.045194000000     0          
C7       C      0.674557000000     0.269065000000     0.943352000000     0          
H1       H      0.708621000000     0.188028000000     0.829388000000     0          
H2       H      0.691365000000     0.212152000000     0.095602000000     0          
C8       C      0.824797000000     0.801274000000     0.058080000000     0          
C9       C      0.816091000000     0.820190000000     0.973483000000     0          
C10      C      0.794370000000     0.873398000000     0.959223000000     0          
C11      C      0.781355000000     0.907689000000     0.029560000000     0          
C12      C      0.790061000000     0.888773000000     0.114157000000     0          
C13      C      0.811782000000     0.835565000000     0.128417000000     0          
C14      C      0.849596000000     0.740525000000     0.074361000000     0          
H3       H      0.825486000000     0.795436000000     0.922709000000     0          
H4       H      0.818066000000     0.821910000000     0.189486000000     0          
C15      C      0.882048000000     0.649580000000     0.022485000000     0          
O1       O      0.962224000000     0.418871000000     0.612117000000     0          
O2       O      0.948075000000     0.411231000000     0.760277000000     0          
O5       O      0.141679000000     0.479102000000     0.892456000000     0          
O6       O      0.543589000000     0.608847000000     0.757265000000     0          
O7       O      0.526318000000     0.611148000000     0.905056000000     0          
O10      O      0.322403000000     0.525150000000     0.929579000000     0          
C1       C      0.042421000000     0.447231000000     0.710417000000     0          
C2       C      0.076353000000     0.462172000000     0.640586000000     0          
C3       C      0.130207000000     0.482032000000     0.655532000000     0          
C4       C      0.150128000000     0.486951000000     0.740309000000     0          
C5       C      0.116196000000     0.472010000000     0.810140000000     0          
C6       C      0.062343000000     0.452150000000     0.795194000000     0          
C7       C      0.980935000000     0.424557000000     0.693352000000     0          
H1       H      0.061972000000     0.458621000000     0.579388000000     0          
H2       H      0.037848000000     0.441365000000     0.845602000000     0          
C8       C      0.448726000000     0.574797000000     0.808080000000     0          
C9       C      0.429810000000     0.566091000000     0.723483000000     0          
C10      C      0.376602000000     0.544370000000     0.709223000000     0          
C11      C      0.342311000000     0.531355000000     0.779560000000     0          
C12      C      0.361227000000     0.540061000000     0.864157000000     0          
C13      C      0.414435000000     0.561782000000     0.878417000000     0          
C14      C      0.509475000000     0.599596000000     0.824361000000     0          
H3       H      0.454564000000     0.575486000000     0.672709000000     0          
H4       H      0.428090000000     0.568066000000     0.939486000000     0          
C15      C      0.600420000000     0.632048000000     0.772485000000     0          
O1       O      0.831129000000     0.712224000000     0.362117000000     0          
O2       O      0.838769000000     0.698075000000     0.510277000000     0          
O5       O      0.770898000000     0.891679000000     0.642456000000     0          
O6       O      0.641153000000     0.293589000000     0.507265000000     0          
O7       O      0.638852000000     0.276318000000     0.655056000000     0          
O10      O      0.724850000000     0.072403000000     0.679579000000     0          
C1       C      0.802769000000     0.792421000000     0.460417000000     0          
C2       C      0.787828000000     0.826353000000     0.390586000000     0          
C3       C      0.767968000000     0.880207000000     0.405532000000     0          
C4       C      0.763049000000     0.900128000000     0.490309000000     0          
C5       C      0.777990000000     0.866196000000     0.560140000000     0          
C6       C      0.797850000000     0.812343000000     0.545194000000     0          
C7       C      0.825443000000     0.730935000000     0.443352000000     0          
H1       H      0.791379000000     0.811972000000     0.329388000000     0          
H2       H      0.808635000000     0.787848000000     0.595602000000     0          
C8       C      0.675203000000     0.198726000000     0.558080000000     0          
C9       C      0.683909000000     0.179810000000     0.473483000000     0          
C10      C      0.705630000000     0.126602000000     0.459223000000     0          
C11      C      0.718645000000     0.092311000000     0.529560000000     0          
C12      C      0.709939000000     0.111227000000     0.614157000000     0          
C13      C      0.688218000000     0.164435000000     0.628417000000     0          
C14      C      0.650404000000     0.259475000000     0.574361000000     0          
H3       H      0.674514000000     0.204564000000     0.422709000000     0          
H4       H      0.681934000000     0.178090000000     0.689486000000     0          
C15      C      0.617952000000     0.350420000000     0.522485000000     0          


