data_HICPIV

_audit_creation_method RASPA-1.0
_audit_creation_date 2020-11-2
_audit_author_name 'Rocio Bueno-Perez'

_cell_length_a    23.2646
_cell_length_b    32.332
_cell_length_c    21.5466
_cell_angle_alpha 90
_cell_angle_beta  90
_cell_angle_gamma 90
_cell_volume      16207.2

_symmetry_cell_setting          triclinic
_symmetry_space_group_name_Hall 'P 1'
_symmetry_space_group_name_H-M  'P 1'
_symmetry_Int_Tables_number     1

_symmetry_equiv_pos_as_xyz 'x,y,z'

loop_
_atom_site_label
_atom_site_type_symbol
_atom_site_fract_x
_atom_site_fract_y
_atom_site_fract_z
_atom_site_charge
O1       O      0.440450000000     0.610430000000     0.564320000000     0          
O2       O      0.392320000000     0.560010000000     0.617080000000     0          
C3       C      0.405100000000     0.597400000000     0.605100000000     0          
C4       C      0.374600000000     0.629600000000     0.643000000000     0          
C5       C      0.344000000000     0.617800000000     0.696100000000     0          
H6       H      0.342700000000     0.590100000000     0.707600000000     0          
C7       C      0.375100000000     0.670800000000     0.625800000000     0          
H8       H      0.395200000000     0.678800000000     0.590500000000     0          
C9       C      0.315600000000     0.647100000000     0.731700000000     0          
H10      H      0.296800000000     0.639200000000     0.767800000000     0          
C11      C      0.315300000000     0.689000000000     0.713200000000     0          
C12      C      0.346300000000     0.700400000000     0.660000000000     0          
H13      H      0.347500000000     0.727900000000     0.647800000000     0          
C14      C      0.281100000000     0.720100000000     0.813600000000     0          
H15      H      0.301200000000     0.699900000000     0.835600000000     0          
C16      C      0.282600000000     0.720000000000     0.749500000000     0          
H17      H      0.039600000000     0.406100000000     0.536400000000     0          
O18      O      0.940450000000     0.110430000000     0.564320000000     0          
O19      O      0.892320000000     0.060010000000     0.617080000000     0          
C20      C      0.905100000000     0.097400000000     0.605100000000     0          
C21      C      0.874600000000     0.129600000000     0.643000000000     0          
C22      C      0.844000000000     0.117800000000     0.696100000000     0          
H23      H      0.842700000000     0.090100000000     0.707600000000     0          
C24      C      0.875100000000     0.170800000000     0.625800000000     0          
H25      H      0.895200000000     0.178800000000     0.590500000000     0          
C26      C      0.815600000000     0.147100000000     0.731700000000     0          
H27      H      0.796800000000     0.139200000000     0.767800000000     0          
C28      C      0.815300000000     0.189000000000     0.713200000000     0          
C29      C      0.846300000000     0.200400000000     0.660000000000     0          
H30      H      0.847500000000     0.227900000000     0.647800000000     0          
C31      C      0.781100000000     0.220100000000     0.813600000000     0          
H32      H      0.801200000000     0.199900000000     0.835600000000     0          
C33      C      0.782600000000     0.220000000000     0.749500000000     0          
H34      H      0.539600000000     0.906100000000     0.536400000000     0          
O35      O      0.559550000000     0.389570000000     0.564320000000     0          
O36      O      0.607680000000     0.439990000000     0.617080000000     0          
C37      C      0.594900000000     0.402600000000     0.605100000000     0          
C38      C      0.625400000000     0.370400000000     0.643000000000     0          
C39      C      0.656000000000     0.382200000000     0.696100000000     0          
H40      H      0.657300000000     0.409900000000     0.707600000000     0          
C41      C      0.624900000000     0.329200000000     0.625800000000     0          
H42      H      0.604800000000     0.321200000000     0.590500000000     0          
C43      C      0.684400000000     0.352900000000     0.731700000000     0          
H44      H      0.703200000000     0.360800000000     0.767800000000     0          
C45      C      0.684700000000     0.311000000000     0.713200000000     0          
C46      C      0.653700000000     0.299600000000     0.660000000000     0          
H47      H      0.652500000000     0.272100000000     0.647800000000     0          
C48      C      0.718900000000     0.279900000000     0.813600000000     0          
H49      H      0.698800000000     0.300100000000     0.835600000000     0          
C50      C      0.717400000000     0.280000000000     0.749500000000     0          
H51      H      0.960400000000     0.593900000000     0.536400000000     0          
O52      O      0.059550000000     0.889570000000     0.564320000000     0          
O53      O      0.107680000000     0.939990000000     0.617080000000     0          
C54      C      0.094900000000     0.902600000000     0.605100000000     0          
C55      C      0.125400000000     0.870400000000     0.643000000000     0          
C56      C      0.156000000000     0.882200000000     0.696100000000     0          
H57      H      0.157300000000     0.909900000000     0.707600000000     0          
C58      C      0.124900000000     0.829200000000     0.625800000000     0          
H59      H      0.104800000000     0.821200000000     0.590500000000     0          
C60      C      0.184400000000     0.852900000000     0.731700000000     0          
H61      H      0.203200000000     0.860800000000     0.767800000000     0          
C62      C      0.184700000000     0.811000000000     0.713200000000     0          
C63      C      0.153700000000     0.799600000000     0.660000000000     0          
H64      H      0.152500000000     0.772100000000     0.647800000000     0          
C65      C      0.218900000000     0.779900000000     0.813600000000     0          
H66      H      0.198800000000     0.800100000000     0.835600000000     0          
C67      C      0.217400000000     0.780000000000     0.749500000000     0          
H68      H      0.460400000000     0.093900000000     0.536400000000     0          
O69      O      0.559550000000     0.610430000000     0.435680000000     0          
O70      O      0.607680000000     0.560010000000     0.382920000000     0          
C71      C      0.594900000000     0.597400000000     0.394900000000     0          
C72      C      0.625400000000     0.629600000000     0.357000000000     0          
C73      C      0.656000000000     0.617800000000     0.303900000000     0          
H74      H      0.657300000000     0.590100000000     0.292400000000     0          
C75      C      0.624900000000     0.670800000000     0.374200000000     0          
H76      H      0.604800000000     0.678800000000     0.409500000000     0          
C77      C      0.684400000000     0.647100000000     0.268300000000     0          
H78      H      0.703200000000     0.639200000000     0.232200000000     0          
C79      C      0.684700000000     0.689000000000     0.286800000000     0          
C80      C      0.653700000000     0.700400000000     0.340000000000     0          
H81      H      0.652500000000     0.727900000000     0.352200000000     0          
C82      C      0.718900000000     0.720100000000     0.186400000000     0          
H83      H      0.698800000000     0.699900000000     0.164400000000     0          
C84      C      0.717400000000     0.720000000000     0.250500000000     0          
O85      O      0.059550000000     0.110430000000     0.435680000000     0          
O86      O      0.107680000000     0.060010000000     0.382920000000     0          
C87      C      0.094900000000     0.097400000000     0.394900000000     0          
C88      C      0.125400000000     0.129600000000     0.357000000000     0          
C89      C      0.156000000000     0.117800000000     0.303900000000     0          
H90      H      0.157300000000     0.090100000000     0.292400000000     0          
C91      C      0.124900000000     0.170800000000     0.374200000000     0          
H92      H      0.104800000000     0.178800000000     0.409500000000     0          
C93      C      0.184400000000     0.147100000000     0.268300000000     0          
H94      H      0.203200000000     0.139200000000     0.232200000000     0          
C95      C      0.184700000000     0.189000000000     0.286800000000     0          
C96      C      0.153700000000     0.200400000000     0.340000000000     0          
H97      H      0.152500000000     0.227900000000     0.352200000000     0          
C98      C      0.218900000000     0.220100000000     0.186400000000     0          
H99      H      0.198800000000     0.199900000000     0.164400000000     0          
C100     C      0.217400000000     0.220000000000     0.250500000000     0          
O101     O      0.440450000000     0.389570000000     0.435680000000     0          
O102     O      0.392320000000     0.439990000000     0.382920000000     0          
C103     C      0.405100000000     0.402600000000     0.394900000000     0          
C104     C      0.374600000000     0.370400000000     0.357000000000     0          
C105     C      0.344000000000     0.382200000000     0.303900000000     0          
H106     H      0.342700000000     0.409900000000     0.292400000000     0          
C107     C      0.375100000000     0.329200000000     0.374200000000     0          
H108     H      0.395200000000     0.321200000000     0.409500000000     0          
C109     C      0.315600000000     0.352900000000     0.268300000000     0          
H110     H      0.296800000000     0.360800000000     0.232200000000     0          
C111     C      0.315300000000     0.311000000000     0.286800000000     0          
C112     C      0.346300000000     0.299600000000     0.340000000000     0          
H113     H      0.347500000000     0.272100000000     0.352200000000     0          
C114     C      0.281100000000     0.279900000000     0.186400000000     0          
H115     H      0.301200000000     0.300100000000     0.164400000000     0          
C116     C      0.282600000000     0.280000000000     0.250500000000     0          
O117     O      0.940450000000     0.889570000000     0.435680000000     0          
O118     O      0.892320000000     0.939990000000     0.382920000000     0          
C119     C      0.905100000000     0.902600000000     0.394900000000     0          
C120     C      0.874600000000     0.870400000000     0.357000000000     0          
C121     C      0.844000000000     0.882200000000     0.303900000000     0          
H122     H      0.842700000000     0.909900000000     0.292400000000     0          
C123     C      0.875100000000     0.829200000000     0.374200000000     0          
H124     H      0.895200000000     0.821200000000     0.409500000000     0          
C125     C      0.815600000000     0.852900000000     0.268300000000     0          
H126     H      0.796800000000     0.860800000000     0.232200000000     0          
C127     C      0.815300000000     0.811000000000     0.286800000000     0          
C128     C      0.846300000000     0.799600000000     0.340000000000     0          
H129     H      0.847500000000     0.772100000000     0.352200000000     0          
C130     C      0.781100000000     0.779900000000     0.186400000000     0          
H131     H      0.801200000000     0.800100000000     0.164400000000     0          
C132     C      0.782600000000     0.780000000000     0.250500000000     0          
O133     O      0.559550000000     0.389570000000     0.435680000000     0          
O134     O      0.607680000000     0.439990000000     0.382920000000     0          
C135     C      0.594900000000     0.402600000000     0.394900000000     0          
C136     C      0.625400000000     0.370400000000     0.357000000000     0          
C137     C      0.656000000000     0.382200000000     0.303900000000     0          
H138     H      0.657300000000     0.409900000000     0.292400000000     0          
C139     C      0.624900000000     0.329200000000     0.374200000000     0          
H140     H      0.604800000000     0.321200000000     0.409500000000     0          
C141     C      0.684400000000     0.352900000000     0.268300000000     0          
H142     H      0.703200000000     0.360800000000     0.232200000000     0          
C143     C      0.684700000000     0.311000000000     0.286800000000     0          
C144     C      0.653700000000     0.299600000000     0.340000000000     0          
H145     H      0.652500000000     0.272100000000     0.352200000000     0          
C146     C      0.718900000000     0.279900000000     0.186400000000     0          
H147     H      0.698800000000     0.300100000000     0.164400000000     0          
C148     C      0.717400000000     0.280000000000     0.250500000000     0          
H149     H      0.960400000000     0.593900000000     0.463600000000     0          
O150     O      0.059550000000     0.889570000000     0.435680000000     0          
O151     O      0.107680000000     0.939990000000     0.382920000000     0          
C152     C      0.094900000000     0.902600000000     0.394900000000     0          
C153     C      0.125400000000     0.870400000000     0.357000000000     0          
C154     C      0.156000000000     0.882200000000     0.303900000000     0          
H155     H      0.157300000000     0.909900000000     0.292400000000     0          
C156     C      0.124900000000     0.829200000000     0.374200000000     0          
H157     H      0.104800000000     0.821200000000     0.409500000000     0          
C158     C      0.184400000000     0.852900000000     0.268300000000     0          
H159     H      0.203200000000     0.860800000000     0.232200000000     0          
C160     C      0.184700000000     0.811000000000     0.286800000000     0          
C161     C      0.153700000000     0.799600000000     0.340000000000     0          
H162     H      0.152500000000     0.772100000000     0.352200000000     0          
C163     C      0.218900000000     0.779900000000     0.186400000000     0          
H164     H      0.198800000000     0.800100000000     0.164400000000     0          
C165     C      0.217400000000     0.780000000000     0.250500000000     0          
H166     H      0.460400000000     0.093900000000     0.463600000000     0          
O167     O      0.440450000000     0.610430000000     0.435680000000     0          
O168     O      0.392320000000     0.560010000000     0.382920000000     0          
C169     C      0.405100000000     0.597400000000     0.394900000000     0          
C170     C      0.374600000000     0.629600000000     0.357000000000     0          
C171     C      0.344000000000     0.617800000000     0.303900000000     0          
H172     H      0.342700000000     0.590100000000     0.292400000000     0          
C173     C      0.375100000000     0.670800000000     0.374200000000     0          
H174     H      0.395200000000     0.678800000000     0.409500000000     0          
C175     C      0.315600000000     0.647100000000     0.268300000000     0          
H176     H      0.296800000000     0.639200000000     0.232200000000     0          
C177     C      0.315300000000     0.689000000000     0.286800000000     0          
C178     C      0.346300000000     0.700400000000     0.340000000000     0          
H179     H      0.347500000000     0.727900000000     0.352200000000     0          
C180     C      0.281100000000     0.720100000000     0.186400000000     0          
H181     H      0.301200000000     0.699900000000     0.164400000000     0          
C182     C      0.282600000000     0.720000000000     0.250500000000     0          
H183     H      0.039600000000     0.406100000000     0.463600000000     0          
O184     O      0.940450000000     0.110430000000     0.435680000000     0          
O185     O      0.892320000000     0.060010000000     0.382920000000     0          
C186     C      0.905100000000     0.097400000000     0.394900000000     0          
C187     C      0.874600000000     0.129600000000     0.357000000000     0          
C188     C      0.844000000000     0.117800000000     0.303900000000     0          
H189     H      0.842700000000     0.090100000000     0.292400000000     0          
C190     C      0.875100000000     0.170800000000     0.374200000000     0          
H191     H      0.895200000000     0.178800000000     0.409500000000     0          
C192     C      0.815600000000     0.147100000000     0.268300000000     0          
H193     H      0.796800000000     0.139200000000     0.232200000000     0          
C194     C      0.815300000000     0.189000000000     0.286800000000     0          
C195     C      0.846300000000     0.200400000000     0.340000000000     0          
H196     H      0.847500000000     0.227900000000     0.352200000000     0          
C197     C      0.781100000000     0.220100000000     0.186400000000     0          
H198     H      0.801200000000     0.199900000000     0.164400000000     0          
C199     C      0.782600000000     0.220000000000     0.250500000000     0          
H200     H      0.539600000000     0.906100000000     0.463600000000     0          
O201     O      0.440450000000     0.389570000000     0.564320000000     0          
O202     O      0.392320000000     0.439990000000     0.617080000000     0          
C203     C      0.405100000000     0.402600000000     0.605100000000     0          
C204     C      0.374600000000     0.370400000000     0.643000000000     0          
C205     C      0.344000000000     0.382200000000     0.696100000000     0          
H206     H      0.342700000000     0.409900000000     0.707600000000     0          
C207     C      0.375100000000     0.329200000000     0.625800000000     0          
H208     H      0.395200000000     0.321200000000     0.590500000000     0          
C209     C      0.315600000000     0.352900000000     0.731700000000     0          
H210     H      0.296800000000     0.360800000000     0.767800000000     0          
C211     C      0.315300000000     0.311000000000     0.713200000000     0          
C212     C      0.346300000000     0.299600000000     0.660000000000     0          
H213     H      0.347500000000     0.272100000000     0.647800000000     0          
C214     C      0.281100000000     0.279900000000     0.813600000000     0          
H215     H      0.301200000000     0.300100000000     0.835600000000     0          
C216     C      0.282600000000     0.280000000000     0.749500000000     0          
O217     O      0.940450000000     0.889570000000     0.564320000000     0          
O218     O      0.892320000000     0.939990000000     0.617080000000     0          
C219     C      0.905100000000     0.902600000000     0.605100000000     0          
C220     C      0.874600000000     0.870400000000     0.643000000000     0          
C221     C      0.844000000000     0.882200000000     0.696100000000     0          
H222     H      0.842700000000     0.909900000000     0.707600000000     0          
C223     C      0.875100000000     0.829200000000     0.625800000000     0          
H224     H      0.895200000000     0.821200000000     0.590500000000     0          
C225     C      0.815600000000     0.852900000000     0.731700000000     0          
H226     H      0.796800000000     0.860800000000     0.767800000000     0          
C227     C      0.815300000000     0.811000000000     0.713200000000     0          
C228     C      0.846300000000     0.799600000000     0.660000000000     0          
H229     H      0.847500000000     0.772100000000     0.647800000000     0          
C230     C      0.781100000000     0.779900000000     0.813600000000     0          
H231     H      0.801200000000     0.800100000000     0.835600000000     0          
C232     C      0.782600000000     0.780000000000     0.749500000000     0          
O233     O      0.559550000000     0.610430000000     0.564320000000     0          
O234     O      0.607680000000     0.560010000000     0.617080000000     0          
C235     C      0.594900000000     0.597400000000     0.605100000000     0          
C236     C      0.625400000000     0.629600000000     0.643000000000     0          
C237     C      0.656000000000     0.617800000000     0.696100000000     0          
H238     H      0.657300000000     0.590100000000     0.707600000000     0          
C239     C      0.624900000000     0.670800000000     0.625800000000     0          
H240     H      0.604800000000     0.678800000000     0.590500000000     0          
C241     C      0.684400000000     0.647100000000     0.731700000000     0          
H242     H      0.703200000000     0.639200000000     0.767800000000     0          
C243     C      0.684700000000     0.689000000000     0.713200000000     0          
C244     C      0.653700000000     0.700400000000     0.660000000000     0          
H245     H      0.652500000000     0.727900000000     0.647800000000     0          
C246     C      0.718900000000     0.720100000000     0.813600000000     0          
H247     H      0.698800000000     0.699900000000     0.835600000000     0          
C248     C      0.717400000000     0.720000000000     0.749500000000     0          
O249     O      0.059550000000     0.110430000000     0.564320000000     0          
O250     O      0.107680000000     0.060010000000     0.617080000000     0          
C251     C      0.094900000000     0.097400000000     0.605100000000     0          
C252     C      0.125400000000     0.129600000000     0.643000000000     0          
C253     C      0.156000000000     0.117800000000     0.696100000000     0          
H254     H      0.157300000000     0.090100000000     0.707600000000     0          
C255     C      0.124900000000     0.170800000000     0.625800000000     0          
H256     H      0.104800000000     0.178800000000     0.590500000000     0          
C257     C      0.184400000000     0.147100000000     0.731700000000     0          
H258     H      0.203200000000     0.139200000000     0.767800000000     0          
C259     C      0.184700000000     0.189000000000     0.713200000000     0          
C260     C      0.153700000000     0.200400000000     0.660000000000     0          
H261     H      0.152500000000     0.227900000000     0.647800000000     0          
C262     C      0.218900000000     0.220100000000     0.813600000000     0          
H263     H      0.198800000000     0.199900000000     0.835600000000     0          
C264     C      0.217400000000     0.220000000000     0.749500000000     0          
Zr265    Zr     0.424850000000     0.500000000000     0.581490000000     0          
O266     O      0.451400000000     0.500000000000     0.680800000000     0          
O267     O      0.333100000000     0.500000000000     0.553000000000     0          
C268     C      0.214100000000     0.500000000000     0.446300000000     0          
H269     H      0.233700000000     0.500000000000     0.408700000000     0          
C270     C      0.550600000000     0.500000000000     0.809200000000     0          
H271     H      0.585300000000     0.500000000000     0.787700000000     0          
C272     C      0.155000000000     0.500000000000     0.446400000000     0          
H273     H      0.135500000000     0.500000000000     0.408700000000     0          
C274     C      0.551300000000     0.500000000000     0.872200000000     0          
H275     H      0.586200000000     0.500000000000     0.893200000000     0          
Zr276    Zr     0.924850000000     0.000000000000     0.581490000000     0          
O277     O      0.951400000000     0.000000000000     0.680800000000     0          
O278     O      0.833100000000     0.000000000000     0.553000000000     0          
C279     C      0.714100000000     0.000000000000     0.446300000000     0          
H280     H      0.733700000000     0.000000000000     0.408700000000     0          
C281     C      0.050600000000     0.000000000000     0.809200000000     0          
H282     H      0.085300000000     0.000000000000     0.787700000000     0          
C283     C      0.655000000000     0.000000000000     0.446400000000     0          
H284     H      0.635500000000     0.000000000000     0.408700000000     0          
C285     C      0.051300000000     0.000000000000     0.872200000000     0          
H286     H      0.086200000000     0.000000000000     0.893200000000     0          
Zr287    Zr     0.575150000000     0.500000000000     0.581490000000     0          
O288     O      0.548600000000     0.500000000000     0.680800000000     0          
O289     O      0.666900000000     0.500000000000     0.553000000000     0          
C290     C      0.785900000000     0.500000000000     0.446300000000     0          
H291     H      0.766300000000     0.500000000000     0.408700000000     0          
C292     C      0.449400000000     0.500000000000     0.809200000000     0          
H293     H      0.414700000000     0.500000000000     0.787700000000     0          
C294     C      0.845000000000     0.500000000000     0.446400000000     0          
H295     H      0.864500000000     0.500000000000     0.408700000000     0          
C296     C      0.448700000000     0.500000000000     0.872200000000     0          
H297     H      0.413800000000     0.500000000000     0.893200000000     0          
Zr298    Zr     0.075150000000     0.000000000000     0.581490000000     0          
O299     O      0.048600000000     0.000000000000     0.680800000000     0          
O300     O      0.166900000000     0.000000000000     0.553000000000     0          
C301     C      0.285900000000     0.000000000000     0.446300000000     0          
H302     H      0.266300000000     0.000000000000     0.408700000000     0          
C303     C      0.949400000000     0.000000000000     0.809200000000     0          
H304     H      0.914700000000     0.000000000000     0.787700000000     0          
C305     C      0.345000000000     0.000000000000     0.446400000000     0          
H306     H      0.364500000000     0.000000000000     0.408700000000     0          
C307     C      0.948700000000     0.000000000000     0.872200000000     0          
H308     H      0.913800000000     0.000000000000     0.893200000000     0          
Zr309    Zr     0.575150000000     0.500000000000     0.418510000000     0          
O310     O      0.548600000000     0.500000000000     0.319200000000     0          
O311     O      0.666900000000     0.500000000000     0.447000000000     0          
C312     C      0.785900000000     0.500000000000     0.553700000000     0          
H313     H      0.766300000000     0.500000000000     0.591300000000     0          
C314     C      0.449400000000     0.500000000000     0.190800000000     0          
H315     H      0.414700000000     0.500000000000     0.212300000000     0          
C316     C      0.845000000000     0.500000000000     0.553600000000     0          
H317     H      0.864500000000     0.500000000000     0.591300000000     0          
C318     C      0.448700000000     0.500000000000     0.127800000000     0          
H319     H      0.413800000000     0.500000000000     0.106800000000     0          
Zr320    Zr     0.075150000000     0.000000000000     0.418510000000     0          
O321     O      0.048600000000     0.000000000000     0.319200000000     0          
O322     O      0.166900000000     0.000000000000     0.447000000000     0          
C323     C      0.285900000000     0.000000000000     0.553700000000     0          
H324     H      0.266300000000     0.000000000000     0.591300000000     0          
C325     C      0.949400000000     0.000000000000     0.190800000000     0          
H326     H      0.914700000000     0.000000000000     0.212300000000     0          
C327     C      0.345000000000     0.000000000000     0.553600000000     0          
H328     H      0.364500000000     0.000000000000     0.591300000000     0          
C329     C      0.948700000000     0.000000000000     0.127800000000     0          
H330     H      0.913800000000     0.000000000000     0.106800000000     0          
Zr331    Zr     0.424850000000     0.500000000000     0.418510000000     0          
O332     O      0.451400000000     0.500000000000     0.319200000000     0          
O333     O      0.333100000000     0.500000000000     0.447000000000     0          
C334     C      0.214100000000     0.500000000000     0.553700000000     0          
H335     H      0.233700000000     0.500000000000     0.591300000000     0          
C336     C      0.550600000000     0.500000000000     0.190800000000     0          
H337     H      0.585300000000     0.500000000000     0.212300000000     0          
C338     C      0.155000000000     0.500000000000     0.553600000000     0          
H339     H      0.135500000000     0.500000000000     0.591300000000     0          
C340     C      0.551300000000     0.500000000000     0.127800000000     0          
H341     H      0.586200000000     0.500000000000     0.106800000000     0          
Zr342    Zr     0.924850000000     0.000000000000     0.418510000000     0          
O343     O      0.951400000000     0.000000000000     0.319200000000     0          
O344     O      0.833100000000     0.000000000000     0.447000000000     0          
C345     C      0.714100000000     0.000000000000     0.553700000000     0          
H346     H      0.733700000000     0.000000000000     0.591300000000     0          
C347     C      0.050600000000     0.000000000000     0.190800000000     0          
H348     H      0.085300000000     0.000000000000     0.212300000000     0          
C349     C      0.655000000000     0.000000000000     0.553600000000     0          
H350     H      0.635500000000     0.000000000000     0.591300000000     0          
C351     C      0.051300000000     0.000000000000     0.127800000000     0          
H352     H      0.086200000000     0.000000000000     0.106800000000     0          
Zr353    Zr     0.500000000000     0.423110000000     0.500000000000     0          
Zr354    Zr     0.000000000000     0.923110000000     0.500000000000     0          
Zr355    Zr     0.500000000000     0.576890000000     0.500000000000     0          
Zr356    Zr     0.000000000000     0.076890000000     0.500000000000     0          
O357     O      0.500000000000     0.537900000000     0.580300000000     0          
O358     O      0.000000000000     0.037900000000     0.580300000000     0          
O359     O      0.500000000000     0.462100000000     0.580300000000     0          
O360     O      0.000000000000     0.962100000000     0.580300000000     0          
O361     O      0.500000000000     0.537900000000     0.419700000000     0          
O362     O      0.000000000000     0.037900000000     0.419700000000     0          
O363     O      0.500000000000     0.462100000000     0.419700000000     0          
O364     O      0.000000000000     0.962100000000     0.419700000000     0          
O365     O      0.425800000000     0.462200000000     0.500000000000     0          
C366     C      0.030800000000     0.463800000000     0.500000000000     0          
C367     C      0.053000000000     0.420400000000     0.500000000000     0          
H368     H      0.094000000000     0.421400000000     0.500000000000     0          
O369     O      0.925800000000     0.962200000000     0.500000000000     0          
C370     C      0.530800000000     0.963800000000     0.500000000000     0          
C371     C      0.553000000000     0.920400000000     0.500000000000     0          
H372     H      0.594000000000     0.921400000000     0.500000000000     0          
O373     O      0.574200000000     0.537800000000     0.500000000000     0          
C374     C      0.969200000000     0.536200000000     0.500000000000     0          
C375     C      0.947000000000     0.579600000000     0.500000000000     0          
H376     H      0.906000000000     0.578600000000     0.500000000000     0          
O377     O      0.074200000000     0.037800000000     0.500000000000     0          
C378     C      0.469200000000     0.036200000000     0.500000000000     0          
C379     C      0.447000000000     0.079600000000     0.500000000000     0          
H380     H      0.406000000000     0.078600000000     0.500000000000     0          
O381     O      0.574200000000     0.462200000000     0.500000000000     0          
C382     C      0.969200000000     0.463800000000     0.500000000000     0          
O383     O      0.074200000000     0.962200000000     0.500000000000     0          
C384     C      0.469200000000     0.963800000000     0.500000000000     0          
O385     O      0.425800000000     0.537800000000     0.500000000000     0          
C386     C      0.030800000000     0.536200000000     0.500000000000     0          
O387     O      0.925800000000     0.037800000000     0.500000000000     0          
C388     C      0.530800000000     0.036200000000     0.500000000000     0          
C389     C      0.500000000000     0.500000000000     0.707200000000     0          
C390     C      0.500000000000     0.500000000000     0.776400000000     0          
C391     C      0.500000000000     0.500000000000     0.905500000000     0          
C392     C      0.500000000000     0.500000000000     0.972200000000     0          
C393     C      0.000000000000     0.000000000000     0.707200000000     0          
C394     C      0.000000000000     0.000000000000     0.776400000000     0          
C395     C      0.000000000000     0.000000000000     0.905500000000     0          
C396     C      0.000000000000     0.000000000000     0.972200000000     0          
C397     C      0.500000000000     0.500000000000     0.292800000000     0          
C398     C      0.500000000000     0.500000000000     0.223600000000     0          
C399     C      0.500000000000     0.500000000000     0.094500000000     0          
C400     C      0.500000000000     0.500000000000     0.027800000000     0          
C401     C      0.000000000000     0.000000000000     0.292800000000     0          
C402     C      0.000000000000     0.000000000000     0.223600000000     0          
C403     C      0.000000000000     0.000000000000     0.094500000000     0          
C404     C      0.000000000000     0.000000000000     0.027800000000     0          
C405     C      0.308600000000     0.500000000000     0.500000000000     0          
C406     C      0.244500000000     0.500000000000     0.500000000000     0          
C407     C      0.124500000000     0.500000000000     0.500000000000     0          
C408     C      0.061000000000     0.500000000000     0.500000000000     0          
C409     C      0.808600000000     0.000000000000     0.500000000000     0          
C410     C      0.744500000000     0.000000000000     0.500000000000     0          
C411     C      0.624500000000     0.000000000000     0.500000000000     0          
C412     C      0.561000000000     0.000000000000     0.500000000000     0          
C413     C      0.691400000000     0.500000000000     0.500000000000     0          
C414     C      0.755500000000     0.500000000000     0.500000000000     0          
C415     C      0.875500000000     0.500000000000     0.500000000000     0          
C416     C      0.939000000000     0.500000000000     0.500000000000     0          
C417     C      0.191400000000     0.000000000000     0.500000000000     0          
C418     C      0.255500000000     0.000000000000     0.500000000000     0          
C419     C      0.375500000000     0.000000000000     0.500000000000     0          
C420     C      0.439000000000     0.000000000000     0.500000000000     0          
C421     C      0.250000000000     0.750000000000     0.717600000000     0          
H422     H      0.250000000000     0.750000000000     0.674400000000     0          
C423     C      0.250000000000     0.750000000000     0.845300000000     0          
C424     C      0.250000000000     0.750000000000     0.913700000000     0          
C425     C      0.250000000000     0.750000000000     0.968700000000     0          
C426     C      0.750000000000     0.250000000000     0.717600000000     0          
H427     H      0.750000000000     0.250000000000     0.674400000000     0          
C428     C      0.750000000000     0.250000000000     0.845300000000     0          
C429     C      0.750000000000     0.250000000000     0.913700000000     0          
C430     C      0.750000000000     0.250000000000     0.968700000000     0          
C431     C      0.750000000000     0.750000000000     0.282400000000     0          
H432     H      0.750000000000     0.750000000000     0.325600000000     0          
C433     C      0.750000000000     0.750000000000     0.154700000000     0          
C434     C      0.750000000000     0.750000000000     0.086300000000     0          
C435     C      0.750000000000     0.750000000000     0.031300000000     0          
C436     C      0.250000000000     0.250000000000     0.282400000000     0          
H437     H      0.250000000000     0.250000000000     0.325600000000     0          
C438     C      0.250000000000     0.250000000000     0.154700000000     0          
C439     C      0.250000000000     0.250000000000     0.086300000000     0          
C440     C      0.250000000000     0.250000000000     0.031300000000     0          
C441     C      0.750000000000     0.250000000000     0.282400000000     0          
H442     H      0.750000000000     0.250000000000     0.325600000000     0          
C443     C      0.750000000000     0.250000000000     0.154700000000     0          
C444     C      0.750000000000     0.250000000000     0.086300000000     0          
C445     C      0.750000000000     0.250000000000     0.031300000000     0          
C446     C      0.250000000000     0.750000000000     0.282400000000     0          
H447     H      0.250000000000     0.750000000000     0.325600000000     0          
C448     C      0.250000000000     0.750000000000     0.154700000000     0          
C449     C      0.250000000000     0.750000000000     0.086300000000     0          
C450     C      0.250000000000     0.750000000000     0.031300000000     0          
C451     C      0.250000000000     0.250000000000     0.717600000000     0          
H452     H      0.250000000000     0.250000000000     0.674400000000     0          
C453     C      0.250000000000     0.250000000000     0.845300000000     0          
C454     C      0.250000000000     0.250000000000     0.913700000000     0          
C455     C      0.250000000000     0.250000000000     0.968700000000     0          
C456     C      0.750000000000     0.750000000000     0.717600000000     0          
H457     H      0.750000000000     0.750000000000     0.674400000000     0          
C458     C      0.750000000000     0.750000000000     0.845300000000     0          
C459     C      0.750000000000     0.750000000000     0.913700000000     0          
C460     C      0.750000000000     0.750000000000     0.968700000000     0          
H461     H      0.945430000000     0.432970000000     0.500000000000     0          
H462     H      0.054570000000     0.567030000000     0.500000000000     0          
H463     H      0.445430000000     0.932970000000     0.500000000000     0          
H464     H      0.554570000000     0.067030000000     0.500000000000     0          


