data_LICGOW

_audit_creation_method RASPA-1.0
_audit_creation_date 2020-11-2
_audit_author_name 'Rocio Bueno-Perez'

_cell_length_a    39.2679
_cell_length_b    39.2679
_cell_length_c    16.5666
_cell_angle_alpha 90
_cell_angle_beta  90
_cell_angle_gamma 120
_cell_volume      22122.8

_symmetry_cell_setting          hexagonal
_symmetry_space_group_name_Hall 'P 1'
_symmetry_space_group_name_H-M  'P 1'
_symmetry_Int_Tables_number     1

_symmetry_equiv_pos_as_xyz 'x,y,z'

loop_
_atom_site_label
_atom_site_type_symbol
_atom_site_fract_x
_atom_site_fract_y
_atom_site_fract_z
_atom_site_charge
C1       C      0.492430000000     0.093620000000     0.133500000000     0          
C2       C      0.492060000000     0.125360000000     0.183700000000     0          
C3       C      0.462500000000     0.115630000000     0.240300000000     0          
H1       H      0.442490000000     0.089670000000     0.246260000000     0          
C4       C      0.463000000000     0.145060000000     0.288200000000     0          
H2       H      0.443250000000     0.138430000000     0.326250000000     0          
C5       C      0.492000000000     0.183610000000     0.280200000000     0          
C6       C      0.520900000000     0.192930000000     0.223000000000     0          
H3       H      0.540510000000     0.218980000000     0.216170000000     0          
C7       C      0.521000000000     0.163800000000     0.175300000000     0          
H4       H      0.540860000000     0.170490000000     0.137520000000     0          
C8       C      0.492500000000     0.183890000000     0.459300000000     0          
H5       H      0.493210000000     0.163500000000     0.432090000000     0          
C9       C      0.491600000000     0.214140000000     0.413500000000     0          
C11      C      0.493200000000     0.215920000000     0.329200000000     0          
O1       O      0.466730000000     0.059260000000     0.148200000000     0          
O2       O      0.518880000000     0.105210000000     0.080970000000     0          
C10      C      0.491100000000     0.245550000000     0.456100000000     0          
C12      C      0.493400000000     0.246700000000     0.289800000000     0          
H6       H      0.493710000000     0.246860000000     0.233670000000     0          
O3       O      0.471560000000     0.036020000000     0.000000000000     0          
O4       O      0.517500000000     0.034990000000     0.107400000000     0          
Zr2      Zr     0.454970000000     0.000000000000     0.106710000000     0          
Zr1      Zr     0.535990000000     0.071980000000     0.000000000000     0          
C1       C      0.398810000000     0.492430000000     0.133500000000     0          
C2       C      0.366700000000     0.492060000000     0.183700000000     0          
C3       C      0.346870000000     0.462500000000     0.240300000000     0          
H1       H      0.352820000000     0.442490000000     0.246260000000     0          
C4       C      0.317940000000     0.463000000000     0.288200000000     0          
H2       H      0.304820000000     0.443250000000     0.326250000000     0          
C5       C      0.308390000000     0.492000000000     0.280200000000     0          
C6       C      0.327970000000     0.520900000000     0.223000000000     0          
H3       H      0.321530000000     0.540510000000     0.216170000000     0          
C7       C      0.357200000000     0.521000000000     0.175300000000     0          
H4       H      0.370370000000     0.540860000000     0.137520000000     0          
C8       C      0.308610000000     0.492500000000     0.459300000000     0          
H5       H      0.329710000000     0.493210000000     0.432090000000     0          
C9       C      0.277460000000     0.491600000000     0.413500000000     0          
C11      C      0.277280000000     0.493200000000     0.329200000000     0          
O1       O      0.407470000000     0.466730000000     0.148200000000     0          
O2       O      0.413670000000     0.518880000000     0.080970000000     0          
C10      C      0.245550000000     0.491100000000     0.456100000000     0          
C12      C      0.246700000000     0.493400000000     0.289800000000     0          
H6       H      0.246850000000     0.493710000000     0.233670000000     0          
O3       O      0.435540000000     0.471560000000     0.000000000000     0          
O4       O      0.482510000000     0.517500000000     0.107400000000     0          
Zr2      Zr     0.454970000000     0.454970000000     0.106710000000     0          
Zr1      Zr     0.464010000000     0.535990000000     0.000000000000     0          
C1       C      0.906380000000     0.398810000000     0.133500000000     0          
C2       C      0.874640000000     0.366700000000     0.183700000000     0          
C3       C      0.884370000000     0.346870000000     0.240300000000     0          
H1       H      0.910330000000     0.352820000000     0.246260000000     0          
C4       C      0.854940000000     0.317940000000     0.288200000000     0          
H2       H      0.861570000000     0.304820000000     0.326250000000     0          
C5       C      0.816390000000     0.308390000000     0.280200000000     0          
C6       C      0.807070000000     0.327970000000     0.223000000000     0          
H3       H      0.781020000000     0.321530000000     0.216170000000     0          
C7       C      0.836200000000     0.357200000000     0.175300000000     0          
H4       H      0.829510000000     0.370370000000     0.137520000000     0          
C8       C      0.816110000000     0.308610000000     0.459300000000     0          
H5       H      0.836500000000     0.329710000000     0.432090000000     0          
C9       C      0.785860000000     0.277460000000     0.413500000000     0          
C11      C      0.784080000000     0.277280000000     0.329200000000     0          
O1       O      0.940740000000     0.407470000000     0.148200000000     0          
O2       O      0.894790000000     0.413670000000     0.080970000000     0          
C10      C      0.754450000000     0.245550000000     0.456100000000     0          
C12      C      0.753300000000     0.246700000000     0.289800000000     0          
H6       H      0.753140000000     0.246850000000     0.233670000000     0          
O3       O      0.963980000000     0.435540000000     0.000000000000     0          
O4       O      0.965010000000     0.482510000000     0.107400000000     0          
Zr2      Zr     0.000000000000     0.454970000000     0.106710000000     0          
Zr1      Zr     0.928020000000     0.464010000000     0.000000000000     0          
C1       C      0.507570000000     0.906380000000     0.133500000000     0          
C2       C      0.507940000000     0.874640000000     0.183700000000     0          
C3       C      0.537500000000     0.884370000000     0.240300000000     0          
H1       H      0.557510000000     0.910330000000     0.246260000000     0          
C4       C      0.537000000000     0.854940000000     0.288200000000     0          
H2       H      0.556750000000     0.861570000000     0.326250000000     0          
C5       C      0.508000000000     0.816390000000     0.280200000000     0          
C6       C      0.479100000000     0.807070000000     0.223000000000     0          
H3       H      0.459490000000     0.781020000000     0.216170000000     0          
C7       C      0.479000000000     0.836200000000     0.175300000000     0          
H4       H      0.459140000000     0.829510000000     0.137520000000     0          
C8       C      0.507500000000     0.816110000000     0.459300000000     0          
H5       H      0.506790000000     0.836500000000     0.432090000000     0          
C9       C      0.508400000000     0.785860000000     0.413500000000     0          
C11      C      0.506800000000     0.784080000000     0.329200000000     0          
O1       O      0.533270000000     0.940740000000     0.148200000000     0          
O2       O      0.481120000000     0.894790000000     0.080970000000     0          
C10      C      0.508900000000     0.754450000000     0.456100000000     0          
C12      C      0.506600000000     0.753300000000     0.289800000000     0          
H6       H      0.506290000000     0.753140000000     0.233670000000     0          
O3       O      0.528440000000     0.963980000000     0.000000000000     0          
O4       O      0.482500000000     0.965010000000     0.107400000000     0          
Zr2      Zr     0.545030000000     0.000000000000     0.106710000000     0          
Zr1      Zr     0.464010000000     0.928020000000     0.000000000000     0          
C1       C      0.601190000000     0.507570000000     0.133500000000     0          
C2       C      0.633300000000     0.507940000000     0.183700000000     0          
C3       C      0.653130000000     0.537500000000     0.240300000000     0          
H1       H      0.647180000000     0.557510000000     0.246260000000     0          
C4       C      0.682060000000     0.537000000000     0.288200000000     0          
H2       H      0.695180000000     0.556750000000     0.326250000000     0          
C5       C      0.691610000000     0.508000000000     0.280200000000     0          
C6       C      0.672030000000     0.479100000000     0.223000000000     0          
H3       H      0.678470000000     0.459490000000     0.216170000000     0          
C7       C      0.642800000000     0.479000000000     0.175300000000     0          
H4       H      0.629630000000     0.459140000000     0.137520000000     0          
C8       C      0.691390000000     0.507500000000     0.459300000000     0          
H5       H      0.670290000000     0.506790000000     0.432090000000     0          
C9       C      0.722540000000     0.508400000000     0.413500000000     0          
C11      C      0.722720000000     0.506800000000     0.329200000000     0          
O1       O      0.592530000000     0.533270000000     0.148200000000     0          
O2       O      0.586330000000     0.481120000000     0.080970000000     0          
C10      C      0.754450000000     0.508900000000     0.456100000000     0          
C12      C      0.753300000000     0.506600000000     0.289800000000     0          
H6       H      0.753150000000     0.506290000000     0.233670000000     0          
O3       O      0.564460000000     0.528440000000     0.000000000000     0          
O4       O      0.517490000000     0.482500000000     0.107400000000     0          
Zr2      Zr     0.545030000000     0.545030000000     0.106710000000     0          
Zr1      Zr     0.535990000000     0.464010000000     0.000000000000     0          
C1       C      0.093620000000     0.601190000000     0.133500000000     0          
C2       C      0.125360000000     0.633300000000     0.183700000000     0          
C3       C      0.115630000000     0.653130000000     0.240300000000     0          
H1       H      0.089670000000     0.647180000000     0.246260000000     0          
C4       C      0.145060000000     0.682060000000     0.288200000000     0          
H2       H      0.138430000000     0.695180000000     0.326250000000     0          
C5       C      0.183610000000     0.691610000000     0.280200000000     0          
C6       C      0.192930000000     0.672030000000     0.223000000000     0          
H3       H      0.218980000000     0.678470000000     0.216170000000     0          
C7       C      0.163800000000     0.642800000000     0.175300000000     0          
H4       H      0.170490000000     0.629630000000     0.137520000000     0          
C8       C      0.183890000000     0.691390000000     0.459300000000     0          
H5       H      0.163500000000     0.670290000000     0.432090000000     0          
C9       C      0.214140000000     0.722540000000     0.413500000000     0          
C11      C      0.215920000000     0.722720000000     0.329200000000     0          
O1       O      0.059260000000     0.592530000000     0.148200000000     0          
O2       O      0.105210000000     0.586330000000     0.080970000000     0          
C10      C      0.245550000000     0.754450000000     0.456100000000     0          
C12      C      0.246700000000     0.753300000000     0.289800000000     0          
H6       H      0.246860000000     0.753150000000     0.233670000000     0          
O3       O      0.036020000000     0.564460000000     0.000000000000     0          
O4       O      0.034990000000     0.517490000000     0.107400000000     0          
Zr2      Zr     0.000000000000     0.545030000000     0.106710000000     0          
Zr1      Zr     0.071980000000     0.535990000000     0.000000000000     0          
C1       C      0.906380000000     0.507570000000     0.866500000000     0          
C2       C      0.874640000000     0.507940000000     0.816300000000     0          
C3       C      0.884370000000     0.537500000000     0.759700000000     0          
H1       H      0.910330000000     0.557510000000     0.753740000000     0          
C4       C      0.854940000000     0.537000000000     0.711800000000     0          
H2       H      0.861570000000     0.556750000000     0.673750000000     0          
C5       C      0.816390000000     0.508000000000     0.719800000000     0          
C6       C      0.807070000000     0.479100000000     0.777000000000     0          
H3       H      0.781020000000     0.459490000000     0.783830000000     0          
C7       C      0.836200000000     0.479000000000     0.824700000000     0          
H4       H      0.829510000000     0.459140000000     0.862480000000     0          
C8       C      0.816110000000     0.507500000000     0.540700000000     0          
H5       H      0.836500000000     0.506790000000     0.567910000000     0          
C9       C      0.785860000000     0.508400000000     0.586500000000     0          
C11      C      0.784080000000     0.506800000000     0.670800000000     0          
O1       O      0.940740000000     0.533270000000     0.851800000000     0          
O2       O      0.894790000000     0.481120000000     0.919030000000     0          
C10      C      0.754450000000     0.508900000000     0.543900000000     0          
C12      C      0.753300000000     0.506600000000     0.710200000000     0          
H6       H      0.753140000000     0.506290000000     0.766330000000     0          
O3       O      0.963980000000     0.528440000000     0.000000000000     0          
O4       O      0.965010000000     0.482500000000     0.892600000000     0          
Zr2      Zr     0.000000000000     0.545030000000     0.893290000000     0          
C1       C      0.398810000000     0.906380000000     0.866500000000     0          
C2       C      0.366700000000     0.874640000000     0.816300000000     0          
C3       C      0.346870000000     0.884370000000     0.759700000000     0          
H1       H      0.352820000000     0.910330000000     0.753740000000     0          
C4       C      0.317940000000     0.854940000000     0.711800000000     0          
H2       H      0.304820000000     0.861570000000     0.673750000000     0          
C5       C      0.308390000000     0.816390000000     0.719800000000     0          
C6       C      0.327970000000     0.807070000000     0.777000000000     0          
H3       H      0.321530000000     0.781020000000     0.783830000000     0          
C7       C      0.357200000000     0.836200000000     0.824700000000     0          
H4       H      0.370370000000     0.829510000000     0.862480000000     0          
C8       C      0.308610000000     0.816110000000     0.540700000000     0          
H5       H      0.329710000000     0.836500000000     0.567910000000     0          
C9       C      0.277460000000     0.785860000000     0.586500000000     0          
C11      C      0.277280000000     0.784080000000     0.670800000000     0          
O1       O      0.407470000000     0.940740000000     0.851800000000     0          
O2       O      0.413670000000     0.894790000000     0.919030000000     0          
C10      C      0.245550000000     0.754450000000     0.543900000000     0          
C12      C      0.246700000000     0.753300000000     0.710200000000     0          
H6       H      0.246850000000     0.753140000000     0.766330000000     0          
O3       O      0.435540000000     0.963980000000     0.000000000000     0          
O4       O      0.482510000000     0.965010000000     0.892600000000     0          
Zr2      Zr     0.454970000000     0.000000000000     0.893290000000     0          
C1       C      0.492430000000     0.398810000000     0.866500000000     0          
C2       C      0.492060000000     0.366700000000     0.816300000000     0          
C3       C      0.462500000000     0.346870000000     0.759700000000     0          
H1       H      0.442490000000     0.352820000000     0.753740000000     0          
C4       C      0.463000000000     0.317940000000     0.711800000000     0          
H2       H      0.443250000000     0.304820000000     0.673750000000     0          
C5       C      0.492000000000     0.308390000000     0.719800000000     0          
C6       C      0.520900000000     0.327970000000     0.777000000000     0          
H3       H      0.540510000000     0.321530000000     0.783830000000     0          
C7       C      0.521000000000     0.357200000000     0.824700000000     0          
H4       H      0.540860000000     0.370370000000     0.862480000000     0          
C8       C      0.492500000000     0.308610000000     0.540700000000     0          
H5       H      0.493210000000     0.329710000000     0.567910000000     0          
C9       C      0.491600000000     0.277460000000     0.586500000000     0          
C11      C      0.493200000000     0.277280000000     0.670800000000     0          
O1       O      0.466730000000     0.407470000000     0.851800000000     0          
O2       O      0.518880000000     0.413670000000     0.919030000000     0          
C10      C      0.491100000000     0.245550000000     0.543900000000     0          
C12      C      0.493400000000     0.246700000000     0.710200000000     0          
H6       H      0.493710000000     0.246850000000     0.766330000000     0          
O3       O      0.471560000000     0.435540000000     0.000000000000     0          
O4       O      0.517500000000     0.482510000000     0.892600000000     0          
Zr2      Zr     0.454970000000     0.454970000000     0.893290000000     0          
C1       C      0.093620000000     0.492430000000     0.866500000000     0          
C2       C      0.125360000000     0.492060000000     0.816300000000     0          
C3       C      0.115630000000     0.462500000000     0.759700000000     0          
H1       H      0.089670000000     0.442490000000     0.753740000000     0          
C4       C      0.145060000000     0.463000000000     0.711800000000     0          
H2       H      0.138430000000     0.443250000000     0.673750000000     0          
C5       C      0.183610000000     0.492000000000     0.719800000000     0          
C6       C      0.192930000000     0.520900000000     0.777000000000     0          
H3       H      0.218980000000     0.540510000000     0.783830000000     0          
C7       C      0.163800000000     0.521000000000     0.824700000000     0          
H4       H      0.170490000000     0.540860000000     0.862480000000     0          
C8       C      0.183890000000     0.492500000000     0.540700000000     0          
H5       H      0.163500000000     0.493210000000     0.567910000000     0          
C9       C      0.214140000000     0.491600000000     0.586500000000     0          
C11      C      0.215920000000     0.493200000000     0.670800000000     0          
O1       O      0.059260000000     0.466730000000     0.851800000000     0          
O2       O      0.105210000000     0.518880000000     0.919030000000     0          
C10      C      0.245550000000     0.491100000000     0.543900000000     0          
C12      C      0.246700000000     0.493400000000     0.710200000000     0          
H6       H      0.246860000000     0.493710000000     0.766330000000     0          
O3       O      0.036020000000     0.471560000000     0.000000000000     0          
O4       O      0.034990000000     0.517500000000     0.892600000000     0          
Zr2      Zr     0.000000000000     0.454970000000     0.893290000000     0          
C1       C      0.601190000000     0.093620000000     0.866500000000     0          
C2       C      0.633300000000     0.125360000000     0.816300000000     0          
C3       C      0.653130000000     0.115630000000     0.759700000000     0          
H1       H      0.647180000000     0.089670000000     0.753740000000     0          
C4       C      0.682060000000     0.145060000000     0.711800000000     0          
H2       H      0.695180000000     0.138430000000     0.673750000000     0          
C5       C      0.691610000000     0.183610000000     0.719800000000     0          
C6       C      0.672030000000     0.192930000000     0.777000000000     0          
H3       H      0.678470000000     0.218980000000     0.783830000000     0          
C7       C      0.642800000000     0.163800000000     0.824700000000     0          
H4       H      0.629630000000     0.170490000000     0.862480000000     0          
C8       C      0.691390000000     0.183890000000     0.540700000000     0          
H5       H      0.670290000000     0.163500000000     0.567910000000     0          
C9       C      0.722540000000     0.214140000000     0.586500000000     0          
C11      C      0.722720000000     0.215920000000     0.670800000000     0          
O1       O      0.592530000000     0.059260000000     0.851800000000     0          
O2       O      0.586330000000     0.105210000000     0.919030000000     0          
C10      C      0.754450000000     0.245550000000     0.543900000000     0          
C12      C      0.753300000000     0.246700000000     0.710200000000     0          
H6       H      0.753150000000     0.246860000000     0.766330000000     0          
O3       O      0.564460000000     0.036020000000     0.000000000000     0          
O4       O      0.517490000000     0.034990000000     0.892600000000     0          
Zr2      Zr     0.545030000000     0.000000000000     0.893290000000     0          
C1       C      0.507570000000     0.601190000000     0.866500000000     0          
C2       C      0.507940000000     0.633300000000     0.816300000000     0          
C3       C      0.537500000000     0.653130000000     0.759700000000     0          
H1       H      0.557510000000     0.647180000000     0.753740000000     0          
C4       C      0.537000000000     0.682060000000     0.711800000000     0          
H2       H      0.556750000000     0.695180000000     0.673750000000     0          
C5       C      0.508000000000     0.691610000000     0.719800000000     0          
C6       C      0.479100000000     0.672030000000     0.777000000000     0          
H3       H      0.459490000000     0.678470000000     0.783830000000     0          
C7       C      0.479000000000     0.642800000000     0.824700000000     0          
H4       H      0.459140000000     0.629630000000     0.862480000000     0          
C8       C      0.507500000000     0.691390000000     0.540700000000     0          
H5       H      0.506790000000     0.670290000000     0.567910000000     0          
C9       C      0.508400000000     0.722540000000     0.586500000000     0          
C11      C      0.506800000000     0.722720000000     0.670800000000     0          
O1       O      0.533270000000     0.592530000000     0.851800000000     0          
O2       O      0.481120000000     0.586330000000     0.919030000000     0          
C10      C      0.508900000000     0.754450000000     0.543900000000     0          
C12      C      0.506600000000     0.753300000000     0.710200000000     0          
H6       H      0.506290000000     0.753150000000     0.766330000000     0          
O3       O      0.528440000000     0.564460000000     0.000000000000     0          
O4       O      0.482500000000     0.517490000000     0.892600000000     0          
Zr2      Zr     0.545030000000     0.545030000000     0.893290000000     0          
C1       C      0.507570000000     0.906380000000     0.866500000000     0          
C2       C      0.507940000000     0.874640000000     0.816300000000     0          
C3       C      0.537500000000     0.884370000000     0.759700000000     0          
H1       H      0.557510000000     0.910330000000     0.753740000000     0          
C4       C      0.537000000000     0.854940000000     0.711800000000     0          
H2       H      0.556750000000     0.861570000000     0.673750000000     0          
C5       C      0.508000000000     0.816390000000     0.719800000000     0          
C6       C      0.479100000000     0.807070000000     0.777000000000     0          
H3       H      0.459490000000     0.781020000000     0.783830000000     0          
C7       C      0.479000000000     0.836200000000     0.824700000000     0          
H4       H      0.459140000000     0.829510000000     0.862480000000     0          
C8       C      0.507500000000     0.816110000000     0.540700000000     0          
H5       H      0.506790000000     0.836500000000     0.567910000000     0          
C9       C      0.508400000000     0.785860000000     0.586500000000     0          
C11      C      0.506800000000     0.784080000000     0.670800000000     0          
O1       O      0.533270000000     0.940740000000     0.851800000000     0          
O2       O      0.481120000000     0.894790000000     0.919030000000     0          
C1       C      0.601190000000     0.507570000000     0.866500000000     0          
C2       C      0.633300000000     0.507940000000     0.816300000000     0          
C3       C      0.653130000000     0.537500000000     0.759700000000     0          
H1       H      0.647180000000     0.557510000000     0.753740000000     0          
C4       C      0.682060000000     0.537000000000     0.711800000000     0          
H2       H      0.695180000000     0.556750000000     0.673750000000     0          
C5       C      0.691610000000     0.508000000000     0.719800000000     0          
C6       C      0.672030000000     0.479100000000     0.777000000000     0          
H3       H      0.678470000000     0.459490000000     0.783830000000     0          
C7       C      0.642800000000     0.479000000000     0.824700000000     0          
H4       H      0.629630000000     0.459140000000     0.862480000000     0          
C8       C      0.691390000000     0.507500000000     0.540700000000     0          
H5       H      0.670290000000     0.506790000000     0.567910000000     0          
C9       C      0.722540000000     0.508400000000     0.586500000000     0          
C11      C      0.722720000000     0.506800000000     0.670800000000     0          
O1       O      0.592530000000     0.533270000000     0.851800000000     0          
O2       O      0.586330000000     0.481120000000     0.919030000000     0          
C1       C      0.093620000000     0.601190000000     0.866500000000     0          
C2       C      0.125360000000     0.633300000000     0.816300000000     0          
C3       C      0.115630000000     0.653130000000     0.759700000000     0          
H1       H      0.089670000000     0.647180000000     0.753740000000     0          
C4       C      0.145060000000     0.682060000000     0.711800000000     0          
H2       H      0.138430000000     0.695180000000     0.673750000000     0          
C5       C      0.183610000000     0.691610000000     0.719800000000     0          
C6       C      0.192930000000     0.672030000000     0.777000000000     0          
H3       H      0.218980000000     0.678470000000     0.783830000000     0          
C7       C      0.163800000000     0.642800000000     0.824700000000     0          
H4       H      0.170490000000     0.629630000000     0.862480000000     0          
C8       C      0.183890000000     0.691390000000     0.540700000000     0          
H5       H      0.163500000000     0.670290000000     0.567910000000     0          
C9       C      0.214140000000     0.722540000000     0.586500000000     0          
C11      C      0.215920000000     0.722720000000     0.670800000000     0          
O1       O      0.059260000000     0.592530000000     0.851800000000     0          
O2       O      0.105210000000     0.586330000000     0.919030000000     0          
C1       C      0.492430000000     0.093620000000     0.866500000000     0          
C2       C      0.492060000000     0.125360000000     0.816300000000     0          
C3       C      0.462500000000     0.115630000000     0.759700000000     0          
H1       H      0.442490000000     0.089670000000     0.753740000000     0          
C4       C      0.463000000000     0.145060000000     0.711800000000     0          
H2       H      0.443250000000     0.138430000000     0.673750000000     0          
C5       C      0.492000000000     0.183610000000     0.719800000000     0          
C6       C      0.520900000000     0.192930000000     0.777000000000     0          
H3       H      0.540510000000     0.218980000000     0.783830000000     0          
C7       C      0.521000000000     0.163800000000     0.824700000000     0          
H4       H      0.540860000000     0.170490000000     0.862480000000     0          
C8       C      0.492500000000     0.183890000000     0.540700000000     0          
H5       H      0.493210000000     0.163500000000     0.567910000000     0          
C9       C      0.491600000000     0.214140000000     0.586500000000     0          
C11      C      0.493200000000     0.215920000000     0.670800000000     0          
O1       O      0.466730000000     0.059260000000     0.851800000000     0          
O2       O      0.518880000000     0.105210000000     0.919030000000     0          
C1       C      0.398810000000     0.492430000000     0.866500000000     0          
C2       C      0.366700000000     0.492060000000     0.816300000000     0          
C3       C      0.346870000000     0.462500000000     0.759700000000     0          
H1       H      0.352820000000     0.442490000000     0.753740000000     0          
C4       C      0.317940000000     0.463000000000     0.711800000000     0          
H2       H      0.304820000000     0.443250000000     0.673750000000     0          
C5       C      0.308390000000     0.492000000000     0.719800000000     0          
C6       C      0.327970000000     0.520900000000     0.777000000000     0          
H3       H      0.321530000000     0.540510000000     0.783830000000     0          
C7       C      0.357200000000     0.521000000000     0.824700000000     0          
H4       H      0.370370000000     0.540860000000     0.862480000000     0          
C8       C      0.308610000000     0.492500000000     0.540700000000     0          
H5       H      0.329710000000     0.493210000000     0.567910000000     0          
C9       C      0.277460000000     0.491600000000     0.586500000000     0          
C11      C      0.277280000000     0.493200000000     0.670800000000     0          
O1       O      0.407470000000     0.466730000000     0.851800000000     0          
O2       O      0.413670000000     0.518880000000     0.919030000000     0          
C1       C      0.906380000000     0.398810000000     0.866500000000     0          
C2       C      0.874640000000     0.366700000000     0.816300000000     0          
C3       C      0.884370000000     0.346870000000     0.759700000000     0          
H1       H      0.910330000000     0.352820000000     0.753740000000     0          
C4       C      0.854940000000     0.317940000000     0.711800000000     0          
H2       H      0.861570000000     0.304820000000     0.673750000000     0          
C5       C      0.816390000000     0.308390000000     0.719800000000     0          
C6       C      0.807070000000     0.327970000000     0.777000000000     0          
H3       H      0.781020000000     0.321530000000     0.783830000000     0          
C7       C      0.836200000000     0.357200000000     0.824700000000     0          
H4       H      0.829510000000     0.370370000000     0.862480000000     0          
C8       C      0.816110000000     0.308610000000     0.540700000000     0          
H5       H      0.836500000000     0.329710000000     0.567910000000     0          
C9       C      0.785860000000     0.277460000000     0.586500000000     0          
C11      C      0.784080000000     0.277280000000     0.670800000000     0          
O1       O      0.940740000000     0.407470000000     0.851800000000     0          
O2       O      0.894790000000     0.413670000000     0.919030000000     0          
C1       C      0.093620000000     0.492430000000     0.133500000000     0          
C2       C      0.125360000000     0.492060000000     0.183700000000     0          
C3       C      0.115630000000     0.462500000000     0.240300000000     0          
H1       H      0.089670000000     0.442490000000     0.246260000000     0          
C4       C      0.145060000000     0.463000000000     0.288200000000     0          
H2       H      0.138430000000     0.443250000000     0.326250000000     0          
C5       C      0.183610000000     0.492000000000     0.280200000000     0          
C6       C      0.192930000000     0.520900000000     0.223000000000     0          
H3       H      0.218980000000     0.540510000000     0.216170000000     0          
C7       C      0.163800000000     0.521000000000     0.175300000000     0          
H4       H      0.170490000000     0.540860000000     0.137520000000     0          
C8       C      0.183890000000     0.492500000000     0.459300000000     0          
H5       H      0.163500000000     0.493210000000     0.432090000000     0          
C9       C      0.214140000000     0.491600000000     0.413500000000     0          
C11      C      0.215920000000     0.493200000000     0.329200000000     0          
O1       O      0.059260000000     0.466730000000     0.148200000000     0          
O2       O      0.105210000000     0.518880000000     0.080970000000     0          
C1       C      0.601190000000     0.093620000000     0.133500000000     0          
C2       C      0.633300000000     0.125360000000     0.183700000000     0          
C3       C      0.653130000000     0.115630000000     0.240300000000     0          
H1       H      0.647180000000     0.089670000000     0.246260000000     0          
C4       C      0.682060000000     0.145060000000     0.288200000000     0          
H2       H      0.695180000000     0.138430000000     0.326250000000     0          
C5       C      0.691610000000     0.183610000000     0.280200000000     0          
C6       C      0.672030000000     0.192930000000     0.223000000000     0          
H3       H      0.678470000000     0.218980000000     0.216170000000     0          
C7       C      0.642800000000     0.163800000000     0.175300000000     0          
H4       H      0.629630000000     0.170490000000     0.137520000000     0          
C8       C      0.691390000000     0.183890000000     0.459300000000     0          
H5       H      0.670290000000     0.163500000000     0.432090000000     0          
C9       C      0.722540000000     0.214140000000     0.413500000000     0          
C11      C      0.722720000000     0.215920000000     0.329200000000     0          
O1       O      0.592530000000     0.059260000000     0.148200000000     0          
O2       O      0.586330000000     0.105210000000     0.080970000000     0          
C1       C      0.507570000000     0.601190000000     0.133500000000     0          
C2       C      0.507940000000     0.633300000000     0.183700000000     0          
C3       C      0.537500000000     0.653130000000     0.240300000000     0          
H1       H      0.557510000000     0.647180000000     0.246260000000     0          
C4       C      0.537000000000     0.682060000000     0.288200000000     0          
H2       H      0.556750000000     0.695180000000     0.326250000000     0          
C5       C      0.508000000000     0.691610000000     0.280200000000     0          
C6       C      0.479100000000     0.672030000000     0.223000000000     0          
H3       H      0.459490000000     0.678470000000     0.216170000000     0          
C7       C      0.479000000000     0.642800000000     0.175300000000     0          
H4       H      0.459140000000     0.629630000000     0.137520000000     0          
C8       C      0.507500000000     0.691390000000     0.459300000000     0          
H5       H      0.506790000000     0.670290000000     0.432090000000     0          
C9       C      0.508400000000     0.722540000000     0.413500000000     0          
C11      C      0.506800000000     0.722720000000     0.329200000000     0          
O1       O      0.533270000000     0.592530000000     0.148200000000     0          
O2       O      0.481120000000     0.586330000000     0.080970000000     0          
C1       C      0.906380000000     0.507570000000     0.133500000000     0          
C2       C      0.874640000000     0.507940000000     0.183700000000     0          
C3       C      0.884370000000     0.537500000000     0.240300000000     0          
H1       H      0.910330000000     0.557510000000     0.246260000000     0          
C4       C      0.854940000000     0.537000000000     0.288200000000     0          
H2       H      0.861570000000     0.556750000000     0.326250000000     0          
C5       C      0.816390000000     0.508000000000     0.280200000000     0          
C6       C      0.807070000000     0.479100000000     0.223000000000     0          
H3       H      0.781020000000     0.459490000000     0.216170000000     0          
C7       C      0.836200000000     0.479000000000     0.175300000000     0          
H4       H      0.829510000000     0.459140000000     0.137520000000     0          
C8       C      0.816110000000     0.507500000000     0.459300000000     0          
H5       H      0.836500000000     0.506790000000     0.432090000000     0          
C9       C      0.785860000000     0.508400000000     0.413500000000     0          
C11      C      0.784080000000     0.506800000000     0.329200000000     0          
O1       O      0.940740000000     0.533270000000     0.148200000000     0          
O2       O      0.894790000000     0.481120000000     0.080970000000     0          
C1       C      0.398810000000     0.906380000000     0.133500000000     0          
C2       C      0.366700000000     0.874640000000     0.183700000000     0          
C3       C      0.346870000000     0.884370000000     0.240300000000     0          
H1       H      0.352820000000     0.910330000000     0.246260000000     0          
C4       C      0.317940000000     0.854940000000     0.288200000000     0          
H2       H      0.304820000000     0.861570000000     0.326250000000     0          
C5       C      0.308390000000     0.816390000000     0.280200000000     0          
C6       C      0.327970000000     0.807070000000     0.223000000000     0          
H3       H      0.321530000000     0.781020000000     0.216170000000     0          
C7       C      0.357200000000     0.836200000000     0.175300000000     0          
H4       H      0.370370000000     0.829510000000     0.137520000000     0          
C8       C      0.308610000000     0.816110000000     0.459300000000     0          
H5       H      0.329710000000     0.836500000000     0.432090000000     0          
C9       C      0.277460000000     0.785860000000     0.413500000000     0          
C11      C      0.277280000000     0.784080000000     0.329200000000     0          
O1       O      0.407470000000     0.940740000000     0.148200000000     0          
O2       O      0.413670000000     0.894790000000     0.080970000000     0          
C1       C      0.492430000000     0.398810000000     0.133500000000     0          
C2       C      0.492060000000     0.366700000000     0.183700000000     0          
C3       C      0.462500000000     0.346870000000     0.240300000000     0          
H1       H      0.442490000000     0.352820000000     0.246260000000     0          
C4       C      0.463000000000     0.317940000000     0.288200000000     0          
H2       H      0.443250000000     0.304820000000     0.326250000000     0          
C5       C      0.492000000000     0.308390000000     0.280200000000     0          
C6       C      0.520900000000     0.327970000000     0.223000000000     0          
H3       H      0.540510000000     0.321530000000     0.216170000000     0          
C7       C      0.521000000000     0.357200000000     0.175300000000     0          
H4       H      0.540860000000     0.370370000000     0.137520000000     0          
C8       C      0.492500000000     0.308610000000     0.459300000000     0          
H5       H      0.493210000000     0.329710000000     0.432090000000     0          
C9       C      0.491600000000     0.277460000000     0.413500000000     0          
C11      C      0.493200000000     0.277280000000     0.329200000000     0          
O1       O      0.466730000000     0.407470000000     0.148200000000     0          
O2       O      0.518880000000     0.413670000000     0.080970000000     0          


