data_TISPAP

_audit_creation_method RASPA-1.0
_audit_creation_date 2020-11-2
_audit_author_name 'Rocio Bueno-Perez'

_cell_length_a    39.403
_cell_length_b    39.403
_cell_length_c    16.379
_cell_angle_alpha 90
_cell_angle_beta  90
_cell_angle_gamma 120
_cell_volume      22023

_symmetry_cell_setting          triclinic
_symmetry_space_group_name_Hall 'P 1'
_symmetry_space_group_name_H-M  'P 1'
_symmetry_Int_Tables_number     1

_symmetry_equiv_pos_as_xyz 'x,y,z'

loop_
_atom_site_label
_atom_site_type_symbol
_atom_site_fract_x
_atom_site_fract_y
_atom_site_fract_z
_atom_site_charge
C1       C      0.507300000000     0.600900000000     0.366800000000     0          
C2       C      0.508600000000     0.633200000000     0.315900000000     0          
C3       C      0.479400000000     0.642300000000     0.325600000000     0          
H4       H      0.459080000000     0.628700000000     0.364300000000     0          
C5       C      0.480300000000     0.672200000000     0.276600000000     0          
H6       H      0.459560000000     0.677810000000     0.281290000000     0          
C7       C      0.510200000000     0.693700000000     0.222200000000     0          
C8       C      0.537700000000     0.683700000000     0.212800000000     0          
H9       H      0.557980000000     0.697610000000     0.173980000000     0          
C10      C      0.538000000000     0.652900000000     0.258900000000     0          
H11      H      0.557790000000     0.646200000000     0.250550000000     0          
C12      C      0.510600000000     0.724900000000     0.172800000000     0          
C13      C      0.510700000000     0.693300000000     0.039900000000     0          
H14      H      0.509580000000     0.671550000000     0.067350000000     0          
C15      C      0.512400000000     0.725200000000     0.089400000000     0          
O16      O      0.533200000000     0.591500000000     0.349200000000     0          
O17      O      0.481100000000     0.585600000000     0.417400000000     0          
C18      C      0.399100000000     0.906400000000     0.366800000000     0          
C19      C      0.366800000000     0.875400000000     0.315900000000     0          
C20      C      0.357700000000     0.837100000000     0.325600000000     0          
H21      H      0.371300000000     0.830380000000     0.364300000000     0          
C22      C      0.327800000000     0.808100000000     0.276600000000     0          
H23      H      0.322190000000     0.781750000000     0.281290000000     0          
C24      C      0.306300000000     0.816500000000     0.222200000000     0          
C25      C      0.316300000000     0.854000000000     0.212800000000     0          
H26      H      0.302390000000     0.860370000000     0.173980000000     0          
C27      C      0.347100000000     0.885100000000     0.258900000000     0          
H28      H      0.353800000000     0.911590000000     0.250550000000     0          
C29      C      0.275100000000     0.785700000000     0.172800000000     0          
C30      C      0.306700000000     0.817400000000     0.039900000000     0          
H31      H      0.328450000000     0.838030000000     0.067350000000     0          
C32      C      0.274800000000     0.787200000000     0.089400000000     0          
O33      O      0.408500000000     0.941700000000     0.349200000000     0          
O34      O      0.414400000000     0.895500000000     0.417400000000     0          
C35      C      0.093600000000     0.492700000000     0.366800000000     0          
C36      C      0.124600000000     0.491400000000     0.315900000000     0          
C37      C      0.162900000000     0.520600000000     0.325600000000     0          
H38      H      0.169620000000     0.540920000000     0.364300000000     0          
C39      C      0.191900000000     0.519700000000     0.276600000000     0          
H40      H      0.218250000000     0.540440000000     0.281290000000     0          
C41      C      0.183500000000     0.489800000000     0.222200000000     0          
C42      C      0.146000000000     0.462300000000     0.212800000000     0          
H43      H      0.139630000000     0.442020000000     0.173980000000     0          
C44      C      0.114900000000     0.462000000000     0.258900000000     0          
H45      H      0.088410000000     0.442210000000     0.250550000000     0          
C46      C      0.214300000000     0.489400000000     0.172800000000     0          
C47      C      0.182600000000     0.489300000000     0.039900000000     0          
H48      H      0.161970000000     0.490420000000     0.067350000000     0          
C49      C      0.212800000000     0.487600000000     0.089400000000     0          
O50      O      0.058300000000     0.466800000000     0.349200000000     0          
O51      O      0.104500000000     0.518900000000     0.417400000000     0          
C52      C      0.492700000000     0.399100000000     0.366800000000     0          
C53      C      0.491400000000     0.366800000000     0.315900000000     0          
C54      C      0.520600000000     0.357700000000     0.325600000000     0          
H55      H      0.540920000000     0.371300000000     0.364300000000     0          
C56      C      0.519700000000     0.327800000000     0.276600000000     0          
H57      H      0.540440000000     0.322190000000     0.281290000000     0          
C58      C      0.489800000000     0.306300000000     0.222200000000     0          
C59      C      0.462300000000     0.316300000000     0.212800000000     0          
H60      H      0.442020000000     0.302390000000     0.173980000000     0          
C61      C      0.462000000000     0.347100000000     0.258900000000     0          
H62      H      0.442210000000     0.353800000000     0.250550000000     0          
C63      C      0.489400000000     0.275100000000     0.172800000000     0          
C64      C      0.489300000000     0.306700000000     0.039900000000     0          
H65      H      0.490420000000     0.328450000000     0.067350000000     0          
C66      C      0.487600000000     0.274800000000     0.089400000000     0          
O67      O      0.466800000000     0.408500000000     0.349200000000     0          
O68      O      0.518900000000     0.414400000000     0.417400000000     0          
C69      C      0.600900000000     0.093600000000     0.366800000000     0          
C70      C      0.633200000000     0.124600000000     0.315900000000     0          
C71      C      0.642300000000     0.162900000000     0.325600000000     0          
H72      H      0.628700000000     0.169620000000     0.364300000000     0          
C73      C      0.672200000000     0.191900000000     0.276600000000     0          
H74      H      0.677810000000     0.218250000000     0.281290000000     0          
C75      C      0.693700000000     0.183500000000     0.222200000000     0          
C76      C      0.683700000000     0.146000000000     0.212800000000     0          
H77      H      0.697610000000     0.139630000000     0.173980000000     0          
C78      C      0.652900000000     0.114900000000     0.258900000000     0          
H79      H      0.646200000000     0.088410000000     0.250550000000     0          
C80      C      0.724900000000     0.214300000000     0.172800000000     0          
C81      C      0.693300000000     0.182600000000     0.039900000000     0          
H82      H      0.671550000000     0.161970000000     0.067350000000     0          
C83      C      0.725200000000     0.212800000000     0.089400000000     0          
O84      O      0.591500000000     0.058300000000     0.349200000000     0          
O85      O      0.585600000000     0.104500000000     0.417400000000     0          
C86      C      0.906400000000     0.507300000000     0.366800000000     0          
C87      C      0.875400000000     0.508600000000     0.315900000000     0          
C88      C      0.837100000000     0.479400000000     0.325600000000     0          
H89      H      0.830380000000     0.459080000000     0.364300000000     0          
C90      C      0.808100000000     0.480300000000     0.276600000000     0          
H91      H      0.781750000000     0.459560000000     0.281290000000     0          
C92      C      0.816500000000     0.510200000000     0.222200000000     0          
C93      C      0.854000000000     0.537700000000     0.212800000000     0          
H94      H      0.860370000000     0.557980000000     0.173980000000     0          
C95      C      0.885100000000     0.538000000000     0.258900000000     0          
H96      H      0.911590000000     0.557790000000     0.250550000000     0          
C97      C      0.785700000000     0.510600000000     0.172800000000     0          
C98      C      0.817400000000     0.510700000000     0.039900000000     0          
H99      H      0.838030000000     0.509580000000     0.067350000000     0          
C100     C      0.787200000000     0.512400000000     0.089400000000     0          
O101     O      0.941700000000     0.533200000000     0.349200000000     0          
O102     O      0.895500000000     0.481100000000     0.417400000000     0          
C103     C      0.600900000000     0.507300000000     0.633200000000     0          
C104     C      0.633200000000     0.508600000000     0.684100000000     0          
C105     C      0.642300000000     0.479400000000     0.674400000000     0          
H106     H      0.628700000000     0.459080000000     0.635700000000     0          
C107     C      0.672200000000     0.480300000000     0.723400000000     0          
H108     H      0.677810000000     0.459560000000     0.718710000000     0          
C109     C      0.693700000000     0.510200000000     0.777800000000     0          
C110     C      0.683700000000     0.537700000000     0.787200000000     0          
H111     H      0.697610000000     0.557980000000     0.826020000000     0          
C112     C      0.652900000000     0.538000000000     0.741100000000     0          
H113     H      0.646200000000     0.557790000000     0.749450000000     0          
C114     C      0.724900000000     0.510600000000     0.827200000000     0          
C115     C      0.693300000000     0.510700000000     0.960100000000     0          
H116     H      0.671550000000     0.509580000000     0.932650000000     0          
C117     C      0.725200000000     0.512400000000     0.910600000000     0          
O118     O      0.591500000000     0.533200000000     0.650800000000     0          
O119     O      0.585600000000     0.481100000000     0.582600000000     0          
C120     C      0.906400000000     0.399100000000     0.633200000000     0          
C121     C      0.875400000000     0.366800000000     0.684100000000     0          
C122     C      0.837100000000     0.357700000000     0.674400000000     0          
H123     H      0.830380000000     0.371300000000     0.635700000000     0          
C124     C      0.808100000000     0.327800000000     0.723400000000     0          
H125     H      0.781750000000     0.322190000000     0.718710000000     0          
C126     C      0.816500000000     0.306300000000     0.777800000000     0          
C127     C      0.854000000000     0.316300000000     0.787200000000     0          
H128     H      0.860370000000     0.302390000000     0.826020000000     0          
C129     C      0.885100000000     0.347100000000     0.741100000000     0          
H130     H      0.911590000000     0.353800000000     0.749450000000     0          
C131     C      0.785700000000     0.275100000000     0.827200000000     0          
C132     C      0.817400000000     0.306700000000     0.960100000000     0          
H133     H      0.838030000000     0.328450000000     0.932650000000     0          
C134     C      0.787200000000     0.274800000000     0.910600000000     0          
O135     O      0.941700000000     0.408500000000     0.650800000000     0          
O136     O      0.895500000000     0.414400000000     0.582600000000     0          
C137     C      0.492700000000     0.093600000000     0.633200000000     0          
C138     C      0.491400000000     0.124600000000     0.684100000000     0          
C139     C      0.520600000000     0.162900000000     0.674400000000     0          
H140     H      0.540920000000     0.169620000000     0.635700000000     0          
C141     C      0.519700000000     0.191900000000     0.723400000000     0          
H142     H      0.540440000000     0.218250000000     0.718710000000     0          
C143     C      0.489800000000     0.183500000000     0.777800000000     0          
C144     C      0.462300000000     0.146000000000     0.787200000000     0          
H145     H      0.442020000000     0.139630000000     0.826020000000     0          
C146     C      0.462000000000     0.114900000000     0.741100000000     0          
H147     H      0.442210000000     0.088410000000     0.749450000000     0          
C148     C      0.489400000000     0.214300000000     0.827200000000     0          
C149     C      0.489300000000     0.182600000000     0.960100000000     0          
H150     H      0.490420000000     0.161970000000     0.932650000000     0          
C151     C      0.487600000000     0.212800000000     0.910600000000     0          
O152     O      0.466800000000     0.058300000000     0.650800000000     0          
O153     O      0.518900000000     0.104500000000     0.582600000000     0          
C154     C      0.399100000000     0.492700000000     0.633200000000     0          
C155     C      0.366800000000     0.491400000000     0.684100000000     0          
C156     C      0.357700000000     0.520600000000     0.674400000000     0          
H157     H      0.371300000000     0.540920000000     0.635700000000     0          
C158     C      0.327800000000     0.519700000000     0.723400000000     0          
H159     H      0.322190000000     0.540440000000     0.718710000000     0          
C160     C      0.306300000000     0.489800000000     0.777800000000     0          
C161     C      0.316300000000     0.462300000000     0.787200000000     0          
H162     H      0.302390000000     0.442020000000     0.826020000000     0          
C163     C      0.347100000000     0.462000000000     0.741100000000     0          
H164     H      0.353800000000     0.442210000000     0.749450000000     0          
C165     C      0.275100000000     0.489400000000     0.827200000000     0          
C166     C      0.306700000000     0.489300000000     0.960100000000     0          
H167     H      0.328450000000     0.490420000000     0.932650000000     0          
C168     C      0.274800000000     0.487600000000     0.910600000000     0          
O169     O      0.408500000000     0.466800000000     0.650800000000     0          
O170     O      0.414400000000     0.518900000000     0.582600000000     0          
C171     C      0.093600000000     0.600900000000     0.633200000000     0          
C172     C      0.124600000000     0.633200000000     0.684100000000     0          
C173     C      0.162900000000     0.642300000000     0.674400000000     0          
H174     H      0.169620000000     0.628700000000     0.635700000000     0          
C175     C      0.191900000000     0.672200000000     0.723400000000     0          
H176     H      0.218250000000     0.677810000000     0.718710000000     0          
C177     C      0.183500000000     0.693700000000     0.777800000000     0          
C178     C      0.146000000000     0.683700000000     0.787200000000     0          
H179     H      0.139630000000     0.697610000000     0.826020000000     0          
C180     C      0.114900000000     0.652900000000     0.741100000000     0          
H181     H      0.088410000000     0.646200000000     0.749450000000     0          
C182     C      0.214300000000     0.724900000000     0.827200000000     0          
C183     C      0.182600000000     0.693300000000     0.960100000000     0          
H184     H      0.161970000000     0.671550000000     0.932650000000     0          
C185     C      0.212800000000     0.725200000000     0.910600000000     0          
O186     O      0.058300000000     0.591500000000     0.650800000000     0          
O187     O      0.104500000000     0.585600000000     0.582600000000     0          
C188     C      0.507300000000     0.906400000000     0.633200000000     0          
C189     C      0.508600000000     0.875400000000     0.684100000000     0          
C190     C      0.479400000000     0.837100000000     0.674400000000     0          
H191     H      0.459080000000     0.830380000000     0.635700000000     0          
C192     C      0.480300000000     0.808100000000     0.723400000000     0          
H193     H      0.459560000000     0.781750000000     0.718710000000     0          
C194     C      0.510200000000     0.816500000000     0.777800000000     0          
C195     C      0.537700000000     0.854000000000     0.787200000000     0          
H196     H      0.557980000000     0.860370000000     0.826020000000     0          
C197     C      0.538000000000     0.885100000000     0.741100000000     0          
H198     H      0.557790000000     0.911590000000     0.749450000000     0          
C199     C      0.510600000000     0.785700000000     0.827200000000     0          
C200     C      0.510700000000     0.817400000000     0.960100000000     0          
H201     H      0.509580000000     0.838030000000     0.932650000000     0          
C202     C      0.512400000000     0.787200000000     0.910600000000     0          
O203     O      0.533200000000     0.941700000000     0.650800000000     0          
O204     O      0.481100000000     0.895500000000     0.582600000000     0          
C205     C      0.492700000000     0.399100000000     0.633200000000     0          
C206     C      0.491400000000     0.366800000000     0.684100000000     0          
C207     C      0.520600000000     0.357700000000     0.674400000000     0          
H208     H      0.540920000000     0.371300000000     0.635700000000     0          
C209     C      0.519700000000     0.327800000000     0.723400000000     0          
H210     H      0.540440000000     0.322190000000     0.718710000000     0          
C211     C      0.489800000000     0.306300000000     0.777800000000     0          
C212     C      0.462300000000     0.316300000000     0.787200000000     0          
H213     H      0.442020000000     0.302390000000     0.826020000000     0          
C214     C      0.462000000000     0.347100000000     0.741100000000     0          
H215     H      0.442210000000     0.353800000000     0.749450000000     0          
C216     C      0.489400000000     0.275100000000     0.827200000000     0          
C217     C      0.489300000000     0.306700000000     0.960100000000     0          
H218     H      0.490420000000     0.328450000000     0.932650000000     0          
C219     C      0.487600000000     0.274800000000     0.910600000000     0          
O220     O      0.466800000000     0.408500000000     0.650800000000     0          
O221     O      0.518900000000     0.414400000000     0.582600000000     0          
C222     C      0.600900000000     0.093600000000     0.633200000000     0          
C223     C      0.633200000000     0.124600000000     0.684100000000     0          
C224     C      0.642300000000     0.162900000000     0.674400000000     0          
H225     H      0.628700000000     0.169620000000     0.635700000000     0          
C226     C      0.672200000000     0.191900000000     0.723400000000     0          
H227     H      0.677810000000     0.218250000000     0.718710000000     0          
C228     C      0.693700000000     0.183500000000     0.777800000000     0          
C229     C      0.683700000000     0.146000000000     0.787200000000     0          
H230     H      0.697610000000     0.139630000000     0.826020000000     0          
C231     C      0.652900000000     0.114900000000     0.741100000000     0          
H232     H      0.646200000000     0.088410000000     0.749450000000     0          
C233     C      0.724900000000     0.214300000000     0.827200000000     0          
C234     C      0.693300000000     0.182600000000     0.960100000000     0          
H235     H      0.671550000000     0.161970000000     0.932650000000     0          
C236     C      0.725200000000     0.212800000000     0.910600000000     0          
O237     O      0.591500000000     0.058300000000     0.650800000000     0          
O238     O      0.585600000000     0.104500000000     0.582600000000     0          
C239     C      0.906400000000     0.507300000000     0.633200000000     0          
C240     C      0.875400000000     0.508600000000     0.684100000000     0          
C241     C      0.837100000000     0.479400000000     0.674400000000     0          
H242     H      0.830380000000     0.459080000000     0.635700000000     0          
C243     C      0.808100000000     0.480300000000     0.723400000000     0          
H244     H      0.781750000000     0.459560000000     0.718710000000     0          
C245     C      0.816500000000     0.510200000000     0.777800000000     0          
C246     C      0.854000000000     0.537700000000     0.787200000000     0          
H247     H      0.860370000000     0.557980000000     0.826020000000     0          
C248     C      0.885100000000     0.538000000000     0.741100000000     0          
H249     H      0.911590000000     0.557790000000     0.749450000000     0          
C250     C      0.785700000000     0.510600000000     0.827200000000     0          
C251     C      0.817400000000     0.510700000000     0.960100000000     0          
H252     H      0.838030000000     0.509580000000     0.932650000000     0          
C253     C      0.787200000000     0.512400000000     0.910600000000     0          
O254     O      0.941700000000     0.533200000000     0.650800000000     0          
O255     O      0.895500000000     0.481100000000     0.582600000000     0          
C256     C      0.507300000000     0.600900000000     0.633200000000     0          
C257     C      0.508600000000     0.633200000000     0.684100000000     0          
C258     C      0.479400000000     0.642300000000     0.674400000000     0          
H259     H      0.459080000000     0.628700000000     0.635700000000     0          
C260     C      0.480300000000     0.672200000000     0.723400000000     0          
H261     H      0.459560000000     0.677810000000     0.718710000000     0          
C262     C      0.510200000000     0.693700000000     0.777800000000     0          
C263     C      0.537700000000     0.683700000000     0.787200000000     0          
H264     H      0.557980000000     0.697610000000     0.826020000000     0          
C265     C      0.538000000000     0.652900000000     0.741100000000     0          
H266     H      0.557790000000     0.646200000000     0.749450000000     0          
C267     C      0.510600000000     0.724900000000     0.827200000000     0          
C268     C      0.510700000000     0.693300000000     0.960100000000     0          
H269     H      0.509580000000     0.671550000000     0.932650000000     0          
C270     C      0.512400000000     0.725200000000     0.910600000000     0          
O271     O      0.533200000000     0.591500000000     0.650800000000     0          
O272     O      0.481100000000     0.585600000000     0.582600000000     0          
C273     C      0.399100000000     0.906400000000     0.633200000000     0          
C274     C      0.366800000000     0.875400000000     0.684100000000     0          
C275     C      0.357700000000     0.837100000000     0.674400000000     0          
H276     H      0.371300000000     0.830380000000     0.635700000000     0          
C277     C      0.327800000000     0.808100000000     0.723400000000     0          
H278     H      0.322190000000     0.781750000000     0.718710000000     0          
C279     C      0.306300000000     0.816500000000     0.777800000000     0          
C280     C      0.316300000000     0.854000000000     0.787200000000     0          
H281     H      0.302390000000     0.860370000000     0.826020000000     0          
C282     C      0.347100000000     0.885100000000     0.741100000000     0          
H283     H      0.353800000000     0.911590000000     0.749450000000     0          
C284     C      0.275100000000     0.785700000000     0.827200000000     0          
C285     C      0.306700000000     0.817400000000     0.960100000000     0          
H286     H      0.328450000000     0.838030000000     0.932650000000     0          
C287     C      0.274800000000     0.787200000000     0.910600000000     0          
O288     O      0.408500000000     0.941700000000     0.650800000000     0          
O289     O      0.414400000000     0.895500000000     0.582600000000     0          
C290     C      0.093600000000     0.492700000000     0.633200000000     0          
C291     C      0.124600000000     0.491400000000     0.684100000000     0          
C292     C      0.162900000000     0.520600000000     0.674400000000     0          
H293     H      0.169620000000     0.540920000000     0.635700000000     0          
C294     C      0.191900000000     0.519700000000     0.723400000000     0          
H295     H      0.218250000000     0.540440000000     0.718710000000     0          
C296     C      0.183500000000     0.489800000000     0.777800000000     0          
C297     C      0.146000000000     0.462300000000     0.787200000000     0          
H298     H      0.139630000000     0.442020000000     0.826020000000     0          
C299     C      0.114900000000     0.462000000000     0.741100000000     0          
H300     H      0.088410000000     0.442210000000     0.749450000000     0          
C301     C      0.214300000000     0.489400000000     0.827200000000     0          
C302     C      0.182600000000     0.489300000000     0.960100000000     0          
H303     H      0.161970000000     0.490420000000     0.932650000000     0          
C304     C      0.212800000000     0.487600000000     0.910600000000     0          
O305     O      0.058300000000     0.466800000000     0.650800000000     0          
O306     O      0.104500000000     0.518900000000     0.582600000000     0          
C307     C      0.399100000000     0.492700000000     0.366800000000     0          
C308     C      0.366800000000     0.491400000000     0.315900000000     0          
C309     C      0.357700000000     0.520600000000     0.325600000000     0          
H310     H      0.371300000000     0.540920000000     0.364300000000     0          
C311     C      0.327800000000     0.519700000000     0.276600000000     0          
H312     H      0.322190000000     0.540440000000     0.281290000000     0          
C313     C      0.306300000000     0.489800000000     0.222200000000     0          
C314     C      0.316300000000     0.462300000000     0.212800000000     0          
H315     H      0.302390000000     0.442020000000     0.173980000000     0          
C316     C      0.347100000000     0.462000000000     0.258900000000     0          
H317     H      0.353800000000     0.442210000000     0.250550000000     0          
C318     C      0.275100000000     0.489400000000     0.172800000000     0          
C319     C      0.306700000000     0.489300000000     0.039900000000     0          
H320     H      0.328450000000     0.490420000000     0.067350000000     0          
C321     C      0.274800000000     0.487600000000     0.089400000000     0          
O322     O      0.408500000000     0.466800000000     0.349200000000     0          
O323     O      0.414400000000     0.518900000000     0.417400000000     0          
C324     C      0.093600000000     0.600900000000     0.366800000000     0          
C325     C      0.124600000000     0.633200000000     0.315900000000     0          
C326     C      0.162900000000     0.642300000000     0.325600000000     0          
H327     H      0.169620000000     0.628700000000     0.364300000000     0          
C328     C      0.191900000000     0.672200000000     0.276600000000     0          
H329     H      0.218250000000     0.677810000000     0.281290000000     0          
C330     C      0.183500000000     0.693700000000     0.222200000000     0          
C331     C      0.146000000000     0.683700000000     0.212800000000     0          
H332     H      0.139630000000     0.697610000000     0.173980000000     0          
C333     C      0.114900000000     0.652900000000     0.258900000000     0          
H334     H      0.088410000000     0.646200000000     0.250550000000     0          
C335     C      0.214300000000     0.724900000000     0.172800000000     0          
C336     C      0.182600000000     0.693300000000     0.039900000000     0          
H337     H      0.161970000000     0.671550000000     0.067350000000     0          
C338     C      0.212800000000     0.725200000000     0.089400000000     0          
O339     O      0.058300000000     0.591500000000     0.349200000000     0          
O340     O      0.104500000000     0.585600000000     0.417400000000     0          
C341     C      0.507300000000     0.906400000000     0.366800000000     0          
C342     C      0.508600000000     0.875400000000     0.315900000000     0          
C343     C      0.479400000000     0.837100000000     0.325600000000     0          
H344     H      0.459080000000     0.830380000000     0.364300000000     0          
C345     C      0.480300000000     0.808100000000     0.276600000000     0          
H346     H      0.459560000000     0.781750000000     0.281290000000     0          
C347     C      0.510200000000     0.816500000000     0.222200000000     0          
C348     C      0.537700000000     0.854000000000     0.212800000000     0          
H349     H      0.557980000000     0.860370000000     0.173980000000     0          
C350     C      0.538000000000     0.885100000000     0.258900000000     0          
H351     H      0.557790000000     0.911590000000     0.250550000000     0          
C352     C      0.510600000000     0.785700000000     0.172800000000     0          
C353     C      0.510700000000     0.817400000000     0.039900000000     0          
H354     H      0.509580000000     0.838030000000     0.067350000000     0          
C355     C      0.512400000000     0.787200000000     0.089400000000     0          
O356     O      0.533200000000     0.941700000000     0.349200000000     0          
O357     O      0.481100000000     0.895500000000     0.417400000000     0          
C358     C      0.600900000000     0.507300000000     0.366800000000     0          
C359     C      0.633200000000     0.508600000000     0.315900000000     0          
C360     C      0.642300000000     0.479400000000     0.325600000000     0          
H361     H      0.628700000000     0.459080000000     0.364300000000     0          
C362     C      0.672200000000     0.480300000000     0.276600000000     0          
H363     H      0.677810000000     0.459560000000     0.281290000000     0          
C364     C      0.693700000000     0.510200000000     0.222200000000     0          
C365     C      0.683700000000     0.537700000000     0.212800000000     0          
H366     H      0.697610000000     0.557980000000     0.173980000000     0          
C367     C      0.652900000000     0.538000000000     0.258900000000     0          
H368     H      0.646200000000     0.557790000000     0.250550000000     0          
C369     C      0.724900000000     0.510600000000     0.172800000000     0          
C370     C      0.693300000000     0.510700000000     0.039900000000     0          
H371     H      0.671550000000     0.509580000000     0.067350000000     0          
C372     C      0.725200000000     0.512400000000     0.089400000000     0          
O373     O      0.591500000000     0.533200000000     0.349200000000     0          
O374     O      0.585600000000     0.481100000000     0.417400000000     0          
C375     C      0.906400000000     0.399100000000     0.366800000000     0          
C376     C      0.875400000000     0.366800000000     0.315900000000     0          
C377     C      0.837100000000     0.357700000000     0.325600000000     0          
H378     H      0.830380000000     0.371300000000     0.364300000000     0          
C379     C      0.808100000000     0.327800000000     0.276600000000     0          
H380     H      0.781750000000     0.322190000000     0.281290000000     0          
C381     C      0.816500000000     0.306300000000     0.222200000000     0          
C382     C      0.854000000000     0.316300000000     0.212800000000     0          
H383     H      0.860370000000     0.302390000000     0.173980000000     0          
C384     C      0.885100000000     0.347100000000     0.258900000000     0          
H385     H      0.911590000000     0.353800000000     0.250550000000     0          
C386     C      0.785700000000     0.275100000000     0.172800000000     0          
C387     C      0.817400000000     0.306700000000     0.039900000000     0          
H388     H      0.838030000000     0.328450000000     0.067350000000     0          
C389     C      0.787200000000     0.274800000000     0.089400000000     0          
O390     O      0.941700000000     0.408500000000     0.349200000000     0          
O391     O      0.895500000000     0.414400000000     0.417400000000     0          
C392     C      0.492700000000     0.093600000000     0.366800000000     0          
C393     C      0.491400000000     0.124600000000     0.315900000000     0          
C394     C      0.520600000000     0.162900000000     0.325600000000     0          
H395     H      0.540920000000     0.169620000000     0.364300000000     0          
C396     C      0.519700000000     0.191900000000     0.276600000000     0          
H397     H      0.540440000000     0.218250000000     0.281290000000     0          
C398     C      0.489800000000     0.183500000000     0.222200000000     0          
C399     C      0.462300000000     0.146000000000     0.212800000000     0          
H400     H      0.442020000000     0.139630000000     0.173980000000     0          
C401     C      0.462000000000     0.114900000000     0.258900000000     0          
H402     H      0.442210000000     0.088410000000     0.250550000000     0          
C403     C      0.489400000000     0.214300000000     0.172800000000     0          
C404     C      0.489300000000     0.182600000000     0.039900000000     0          
H405     H      0.490420000000     0.161970000000     0.067350000000     0          
C406     C      0.487600000000     0.212800000000     0.089400000000     0          
O407     O      0.466800000000     0.058300000000     0.349200000000     0          
O408     O      0.518900000000     0.104500000000     0.417400000000     0          
C409     C      0.510000000000     0.755000000000     0.210000000000     0          
H410     H      0.508950000000     0.754470000000     0.267990000000     0          
C411     C      0.512000000000     0.756000000000     0.045900000000     0          
C412     C      0.245000000000     0.755000000000     0.210000000000     0          
H413     H      0.245530000000     0.754470000000     0.267990000000     0          
C414     C      0.244000000000     0.756000000000     0.045900000000     0          
C415     C      0.245000000000     0.490000000000     0.210000000000     0          
H416     H      0.245530000000     0.491050000000     0.267990000000     0          
C417     C      0.244000000000     0.488000000000     0.045900000000     0          
C418     C      0.490000000000     0.245000000000     0.210000000000     0          
H419     H      0.491050000000     0.245530000000     0.267990000000     0          
C420     C      0.488000000000     0.244000000000     0.045900000000     0          
C421     C      0.755000000000     0.245000000000     0.210000000000     0          
H422     H      0.754470000000     0.245530000000     0.267990000000     0          
C423     C      0.756000000000     0.244000000000     0.045900000000     0          
C424     C      0.755000000000     0.510000000000     0.210000000000     0          
H425     H      0.754470000000     0.508950000000     0.267990000000     0          
C426     C      0.756000000000     0.512000000000     0.045900000000     0          
C427     C      0.755000000000     0.510000000000     0.790000000000     0          
H428     H      0.754470000000     0.508950000000     0.732010000000     0          
C429     C      0.756000000000     0.512000000000     0.954100000000     0          
C430     C      0.755000000000     0.245000000000     0.790000000000     0          
H431     H      0.754470000000     0.245530000000     0.732010000000     0          
C432     C      0.756000000000     0.244000000000     0.954100000000     0          
C433     C      0.490000000000     0.245000000000     0.790000000000     0          
H434     H      0.491050000000     0.245530000000     0.732010000000     0          
C435     C      0.488000000000     0.244000000000     0.954100000000     0          
C436     C      0.245000000000     0.490000000000     0.790000000000     0          
H437     H      0.245530000000     0.491050000000     0.732010000000     0          
C438     C      0.244000000000     0.488000000000     0.954100000000     0          
C439     C      0.245000000000     0.755000000000     0.790000000000     0          
H440     H      0.245530000000     0.754470000000     0.732010000000     0          
C441     C      0.244000000000     0.756000000000     0.954100000000     0          
C442     C      0.510000000000     0.755000000000     0.790000000000     0          
H443     H      0.508950000000     0.754470000000     0.732010000000     0          
C444     C      0.512000000000     0.756000000000     0.954100000000     0          
O445     O      0.482750000000     0.517250000000     0.391300000000     0          
O446     O      0.482750000000     0.965500000000     0.391300000000     0          
O447     O      0.034500000000     0.517250000000     0.391300000000     0          
O448     O      0.517250000000     0.482750000000     0.391300000000     0          
O449     O      0.517250000000     0.034500000000     0.391300000000     0          
O450     O      0.965500000000     0.482750000000     0.391300000000     0          
O451     O      0.517250000000     0.482750000000     0.608700000000     0          
O452     O      0.965500000000     0.482750000000     0.608700000000     0          
O453     O      0.517250000000     0.034500000000     0.608700000000     0          
O454     O      0.482750000000     0.517250000000     0.608700000000     0          
O455     O      0.034500000000     0.517250000000     0.608700000000     0          
O456     O      0.482750000000     0.965500000000     0.608700000000     0          
O457     O      0.527800000000     0.563500000000     0.500000000000     0          
O458     O      0.436500000000     0.964300000000     0.500000000000     0          
O459     O      0.035700000000     0.472200000000     0.500000000000     0          
O460     O      0.472200000000     0.436500000000     0.500000000000     0          
O461     O      0.563500000000     0.035700000000     0.500000000000     0          
O462     O      0.964300000000     0.527800000000     0.500000000000     0          
O463     O      0.563500000000     0.527800000000     0.500000000000     0          
O464     O      0.964300000000     0.436500000000     0.500000000000     0          
O465     O      0.472200000000     0.035700000000     0.500000000000     0          
O466     O      0.436500000000     0.472200000000     0.500000000000     0          
O467     O      0.035700000000     0.563500000000     0.500000000000     0          
O468     O      0.527800000000     0.964300000000     0.500000000000     0          
O469     O      0.542700000000     0.542700000000     0.258500000000     0          
O470     O      0.600400000000     0.600400000000     0.400900000000     0          
Zr471    Zr     0.544760000000     0.544760000000     0.392170000000     0          
O472     O      0.457300000000     0.000000000000     0.258500000000     0          
O473     O      0.399600000000     0.000000000000     0.400900000000     0          
Zr474    Zr     0.455240000000     0.000000000000     0.392170000000     0          
O475     O      0.000000000000     0.457300000000     0.258500000000     0          
O476     O      0.000000000000     0.399600000000     0.400900000000     0          
Zr477    Zr     0.000000000000     0.455240000000     0.392170000000     0          
O478     O      0.457300000000     0.457300000000     0.258500000000     0          
O479     O      0.399600000000     0.399600000000     0.400900000000     0          
Zr480    Zr     0.455240000000     0.455240000000     0.392170000000     0          
O481     O      0.542700000000     0.000000000000     0.258500000000     0          
O482     O      0.600400000000     0.000000000000     0.400900000000     0          
Zr483    Zr     0.544760000000     0.000000000000     0.392170000000     0          
O484     O      0.000000000000     0.542700000000     0.258500000000     0          
O485     O      0.000000000000     0.600400000000     0.400900000000     0          
Zr486    Zr     0.000000000000     0.544760000000     0.392170000000     0          
O487     O      0.542700000000     0.542700000000     0.741500000000     0          
O488     O      0.600400000000     0.600400000000     0.599100000000     0          
Zr489    Zr     0.544760000000     0.544760000000     0.607830000000     0          
O490     O      0.000000000000     0.457300000000     0.741500000000     0          
O491     O      0.000000000000     0.399600000000     0.599100000000     0          
Zr492    Zr     0.000000000000     0.455240000000     0.607830000000     0          
O493     O      0.457300000000     0.000000000000     0.741500000000     0          
O494     O      0.399600000000     0.000000000000     0.599100000000     0          
Zr495    Zr     0.455240000000     0.000000000000     0.607830000000     0          
O496     O      0.457300000000     0.457300000000     0.741500000000     0          
O497     O      0.399600000000     0.399600000000     0.599100000000     0          
Zr498    Zr     0.455240000000     0.455240000000     0.607830000000     0          
O499     O      0.000000000000     0.542700000000     0.741500000000     0          
O500     O      0.000000000000     0.600400000000     0.599100000000     0          
Zr501    Zr     0.000000000000     0.544760000000     0.607830000000     0          
O502     O      0.542700000000     0.000000000000     0.741500000000     0          
O503     O      0.600400000000     0.000000000000     0.599100000000     0          
Zr504    Zr     0.544760000000     0.000000000000     0.607830000000     0          
Zr505    Zr     0.464300000000     0.535700000000     0.500000000000     0          
Zr506    Zr     0.464300000000     0.928600000000     0.500000000000     0          
Zr507    Zr     0.071400000000     0.535700000000     0.500000000000     0          
Zr508    Zr     0.535700000000     0.464300000000     0.500000000000     0          
Zr509    Zr     0.535700000000     0.071400000000     0.500000000000     0          
Zr510    Zr     0.928600000000     0.464300000000     0.500000000000     0          


